<routes>
    <vType id="Car"
    vClass="Personal"
    length="3"/>
</routes>