<?xml version="1.0" encoding="UTF-8"?>

<!-- generated on 2022-04-06 11:56:37 by Eclipse SUMO netedit Version 1.12.0
<configuration xmlns:xsi="http://www.w3.org/2001/XMLSchema-instance" xsi:noNamespaceSchemaLocation="http://sumo.dlr.de/xsd/netconvertConfiguration.xsd">

    <input>
        <sumo-net-file value="C:\Users\91987\City-Traffic-Management-System\new-network.net.xml"/>
    </input>

    <output>
        <output-file value="C:\Users\91987\City-Traffic-Management-System\new-network.net.xml"/>
    </output>

    <processing>
        <geometry.min-radius.fix.railways value="false"/>
        <geometry.max-grade.fix value="false"/>
        <offset.disable-normalization value="true"/>
        <lefthand value="false"/>
    </processing>

    <junctions>
        <no-turnarounds value="true"/>
        <junctions.corner-detail value="5"/>
        <junctions.limit-turn-speed value="5.5"/>
        <rectangular-lane-cut value="false"/>
    </junctions>

    <pedestrian>
        <walkingareas value="false"/>
    </pedestrian>

    <report>
        <aggregate-warnings value="5"/>
    </report>

</configuration>
-->

<net version="1.9" junctionCornerDetail="5" limitTurnSpeed="5.50" xmlns:xsi="http://www.w3.org/2001/XMLSchema-instance" xsi:noNamespaceSchemaLocation="http://sumo.dlr.de/xsd/net_file.xsd">

    <location netOffset="0.00,0.00" convBoundary="1132.40,-548.02,1862.62,-207.96" origBoundary="-10000000000.00,-10000000000.00,10000000000.00,10000000000.00" projParameter="!"/>

    <edge id=":J10_0" function="internal">
        <lane id=":J10_0_0" index="0" speed="9.42" length="20.09" shape="1460.93,-357.61 1459.80,-360.06 1456.43,-361.81 1450.81,-362.86 1442.94,-363.21"/>
    </edge>
    <edge id=":J10_1" function="internal">
        <lane id=":J10_1_0" index="0" speed="13.89" length="35.73" shape="1460.93,-357.61 1460.04,-367.27 1457.31,-374.73 1452.67,-381.43 1446.05,-388.84"/>
    </edge>
    <edge id=":J10_2" function="internal">
        <lane id=":J10_2_0" index="0" speed="13.89" length="42.08" shape="1460.93,-357.61 1460.93,-399.70"/>
        <lane id=":J10_2_1" index="1" speed="13.89" length="42.08" shape="1464.13,-357.61 1464.13,-399.70"/>
        <lane id=":J10_2_2" index="2" speed="13.89" length="42.08" shape="1467.33,-357.61 1467.33,-399.70"/>
    </edge>
    <edge id=":J10_5" function="internal">
        <lane id=":J10_5_0" index="0" speed="10.36" length="5.01" shape="1467.33,-357.61 1468.04,-362.58"/>
    </edge>
    <edge id=":J10_30" function="internal">
        <lane id=":J10_30_0" index="0" speed="10.36" length="19.50" shape="1468.04,-362.58 1468.28,-364.26 1471.13,-369.01 1475.88,-371.86 1482.53,-372.81"/>
    </edge>
    <edge id=":J10_6" function="internal">
        <lane id=":J10_6_0" index="0" speed="6.51" length="9.03" shape="1482.53,-363.21 1480.08,-362.86 1478.33,-361.81 1477.28,-360.06 1476.93,-357.61"/>
    </edge>
    <edge id=":J10_7" function="internal">
        <lane id=":J10_7_0" index="0" speed="13.89" length="39.58" shape="1482.53,-363.21 1442.94,-363.21"/>
        <lane id=":J10_7_1" index="1" speed="13.89" length="39.58" shape="1482.53,-366.41 1442.94,-366.41"/>
        <lane id=":J10_7_2" index="2" speed="13.89" length="39.58" shape="1482.53,-369.61 1442.94,-369.61"/>
    </edge>
    <edge id=":J10_10" function="internal">
        <lane id=":J10_10_0" index="0" speed="13.89" length="5.51" shape="1482.53,-369.61 1477.07,-370.32"/>
    </edge>
    <edge id=":J10_11" function="internal">
        <lane id=":J10_11_0" index="0" speed="12.69" length="2.70" shape="1482.53,-369.61 1479.93,-370.35"/>
    </edge>
    <edge id=":J10_31" function="internal">
        <lane id=":J10_31_0" index="0" speed="13.89" length="36.88" shape="1477.07,-370.32 1473.25,-370.81 1464.08,-374.42 1455.01,-380.43 1446.05,-388.84"/>
    </edge>
    <edge id=":J10_32" function="internal">
        <lane id=":J10_32_0" index="0" speed="12.69" length="34.61" shape="1479.93,-370.35 1475.88,-371.49 1471.13,-377.13 1468.28,-386.53 1467.33,-399.70"/>
    </edge>
    <edge id=":J10_12" function="internal">
        <lane id=":J10_12_0" index="0" speed="9.93" length="22.44" shape="1476.93,-399.70 1477.28,-390.73 1478.33,-384.33 1480.08,-380.49 1482.53,-379.21"/>
    </edge>
    <edge id=":J10_13" function="internal">
        <lane id=":J10_13_0" index="0" speed="13.89" length="42.08" shape="1476.93,-399.70 1476.93,-357.61"/>
        <lane id=":J10_13_1" index="1" speed="13.89" length="42.08" shape="1473.73,-399.70 1473.73,-357.61"/>
        <lane id=":J10_13_2" index="2" speed="13.89" length="42.08" shape="1470.53,-399.70 1470.53,-357.61"/>
    </edge>
    <edge id=":J10_16" function="internal">
        <lane id=":J10_16_0" index="0" speed="13.89" length="6.01" shape="1470.53,-399.70 1469.82,-393.73"/>
    </edge>
    <edge id=":J10_17" function="internal">
        <lane id=":J10_17_0" index="0" speed="9.26" length="2.85" shape="1470.53,-399.70 1469.80,-396.94"/>
    </edge>
    <edge id=":J10_33" function="internal">
        <lane id=":J10_33_0" index="0" speed="13.89" length="43.16" shape="1469.82,-393.73 1468.80,-385.13 1463.63,-374.73 1455.01,-368.49 1442.94,-366.41"/>
    </edge>
    <edge id=":J10_34" function="internal">
        <lane id=":J10_34_0" index="0" speed="9.26" length="28.69" shape="1469.80,-396.94 1468.33,-391.41 1462.83,-386.77 1455.64,-386.43 1448.39,-391.02"/>
    </edge>
    <edge id=":J10_18" function="internal">
        <lane id=":J10_18_0" index="0" speed="5.46" length="9.87" shape="1455.44,-397.54 1457.84,-395.45 1459.56,-395.12 1460.59,-396.53 1460.93,-399.70"/>
    </edge>
    <edge id=":J10_19" function="internal">
        <lane id=":J10_19_0" index="0" speed="13.89" length="35.06" shape="1455.44,-397.54 1464.61,-388.12 1472.19,-381.39 1478.16,-377.36 1482.53,-376.01"/>
    </edge>
    <edge id=":J10_20" function="internal">
        <lane id=":J10_20_0" index="0" speed="13.89" length="44.04" shape="1455.44,-397.54 1463.10,-388.77 1470.01,-379.08 1475.00,-368.63 1476.93,-357.61"/>
        <lane id=":J10_20_1" index="1" speed="13.89" length="44.04" shape="1453.09,-395.37 1460.62,-386.94 1467.23,-377.99 1471.94,-368.29 1473.73,-357.61"/>
        <lane id=":J10_20_2" index="2" speed="13.89" length="44.04" shape="1450.74,-393.19 1458.14,-385.10 1464.46,-376.90 1468.87,-367.95 1470.53,-357.61"/>
    </edge>
    <edge id=":J10_23" function="internal">
        <lane id=":J10_23_0" index="0" speed="9.58" length="32.64" shape="1450.74,-393.19 1455.42,-385.24 1455.53,-377.61 1451.30,-371.87 1442.94,-369.61"/>
    </edge>
    <edge id=":J10_24" function="internal">
        <lane id=":J10_24_0" index="0" speed="5.89" length="11.31" shape="1442.94,-379.21 1445.87,-379.68 1446.97,-381.08 1446.24,-383.41 1443.70,-386.67"/>
    </edge>
    <edge id=":J10_25" function="internal">
        <lane id=":J10_25_0" index="0" speed="12.07" length="33.60" shape="1442.94,-379.21 1452.21,-380.49 1458.83,-384.33 1462.80,-390.73 1464.13,-399.70"/>
    </edge>
    <edge id=":J10_26" function="internal">
        <lane id=":J10_26_0" index="0" speed="13.89" length="39.58" shape="1442.94,-379.21 1482.53,-379.21"/>
        <lane id=":J10_26_1" index="1" speed="13.89" length="39.58" shape="1442.94,-376.01 1482.53,-376.01"/>
        <lane id=":J10_26_2" index="2" speed="13.89" length="39.58" shape="1442.94,-372.81 1482.53,-372.81"/>
    </edge>
    <edge id=":J10_29" function="internal">
        <lane id=":J10_29_0" index="0" speed="12.32" length="8.96" shape="1442.94,-372.81 1451.87,-372.11"/>
    </edge>
    <edge id=":J10_35" function="internal">
        <lane id=":J10_35_0" index="0" speed="12.32" length="26.12" shape="1451.87,-372.11 1455.01,-371.86 1463.63,-369.01 1468.80,-364.26 1470.53,-357.61"/>
    </edge>
    <edge id=":J11_0" function="internal">
        <lane id=":J11_0_0" index="0" speed="6.51" length="9.03" shape="1460.93,-540.82 1460.58,-543.27 1459.53,-545.02 1457.78,-546.07 1455.33,-546.42"/>
    </edge>
    <edge id=":J11_1" function="internal">
        <lane id=":J11_1_0" index="0" speed="9.32" length="19.63" shape="1467.33,-540.82 1468.28,-544.67 1471.13,-547.42 1475.88,-549.07 1482.53,-549.62"/>
    </edge>
    <edge id=":J11_2" function="internal">
        <lane id=":J11_2_0" index="0" speed="6.51" length="9.03" shape="1482.53,-546.42 1480.08,-546.07 1478.33,-545.02 1477.28,-543.27 1476.93,-540.82"/>
    </edge>
    <edge id=":J11_3" function="internal">
        <lane id=":J11_3_0" index="0" speed="13.89" length="27.20" shape="1482.53,-546.42 1455.33,-546.42"/>
    </edge>
    <edge id=":J11_4" function="internal">
        <lane id=":J11_4_0" index="0" speed="13.89" length="27.20" shape="1455.33,-549.62 1482.53,-549.62"/>
    </edge>
    <edge id=":J11_5" function="internal">
        <lane id=":J11_5_0" index="0" speed="9.94" length="8.55" shape="1455.33,-549.62 1463.38,-549.07 1463.84,-548.94"/>
        <lane id=":J11_5_1" index="1" speed="9.32" length="7.05" shape="1455.33,-549.62 1461.98,-549.07 1462.34,-548.95"/>
    </edge>
    <edge id=":J11_7" function="internal">
        <lane id=":J11_7_0" index="0" speed="9.94" length="13.93" shape="1463.84,-548.94 1469.13,-547.42 1472.58,-544.67 1473.73,-540.82"/>
    </edge>
    <edge id=":J11_8" function="internal">
        <lane id=":J11_8_0" index="0" speed="9.32" length="12.57" shape="1462.34,-548.95 1466.73,-547.42 1469.58,-544.67 1470.53,-540.82"/>
    </edge>
    <edge id=":J12_0" function="internal">
        <lane id=":J12_0_0" index="0" speed="13.89" length="28.63" shape="1676.34,-206.36 1647.71,-206.36"/>
    </edge>
    <edge id=":J12_1" function="internal">
        <lane id=":J12_1_0" index="0" speed="11.65" length="31.26" shape="1676.34,-206.36 1667.67,-207.54 1661.47,-211.09 1657.75,-217.01 1656.51,-225.29"/>
    </edge>
    <edge id=":J12_2" function="internal">
        <lane id=":J12_2_0" index="0" speed="7.34" length="19.83" shape="1676.34,-206.36 1671.07,-207.77 1667.99,-211.27 1667.66,-215.73 1670.64,-220.04"/>
    </edge>
    <edge id=":J12_3" function="internal">
        <lane id=":J12_3_0" index="0" speed="5.49" length="10.30" shape="1674.64,-215.05 1672.18,-212.65 1671.64,-210.93 1673.03,-209.90 1676.34,-209.56"/>
    </edge>
    <edge id=":J12_4" function="internal">
        <lane id=":J12_4_0" index="0" speed="13.89" length="28.65" shape="1674.64,-215.05 1667.84,-211.05 1660.12,-208.36 1652.93,-206.84 1647.71,-206.36"/>
    </edge>
    <edge id=":J12_5" function="internal">
        <lane id=":J12_5_0" index="0" speed="8.31" length="23.31" shape="1672.64,-217.54 1666.85,-214.74 1661.67,-215.36 1657.94,-219.01 1656.51,-225.29"/>
    </edge>
    <edge id=":J12_6" function="internal">
        <lane id=":J12_6_0" index="0" speed="5.53" length="9.46" shape="1662.91,-225.29 1663.27,-222.37 1664.34,-220.93 1666.13,-220.99 1668.64,-222.54"/>
    </edge>
    <edge id=":J12_7" function="internal">
        <lane id=":J12_7_0" index="0" speed="10.16" length="23.54" shape="1662.91,-225.29 1663.75,-218.41 1666.27,-213.49 1670.47,-210.54 1676.34,-209.56"/>
    </edge>
    <edge id=":J12_8" function="internal">
        <lane id=":J12_8_0" index="0" speed="10.50" length="25.19" shape="1659.71,-225.29 1658.96,-217.01 1656.71,-211.09 1652.96,-207.54 1647.71,-206.36"/>
    </edge>
    <edge id=":J12_9" function="internal">
        <lane id=":J12_9_0" index="0" speed="8.94" length="17.98" shape="1647.71,-209.56 1650.16,-210.54 1651.91,-213.49 1652.96,-218.41 1653.31,-225.29"/>
    </edge>
    <edge id=":J12_10" function="internal">
        <lane id=":J12_10_0" index="0" speed="13.89" length="25.51" shape="1647.71,-209.56 1652.31,-210.32 1658.12,-212.46 1664.47,-215.77 1670.64,-220.04"/>
    </edge>
    <edge id=":J12_11" function="internal">
        <lane id=":J12_11_0" index="0" speed="13.89" length="28.63" shape="1647.71,-209.56 1676.34,-209.56"/>
    </edge>
    <edge id=":J13_0" function="internal">
        <lane id=":J13_0_0" index="0" speed="6.51" length="9.03" shape="1653.31,-357.61 1652.96,-360.06 1651.91,-361.81 1650.16,-362.86 1647.71,-363.21"/>
    </edge>
    <edge id=":J13_1" function="internal">
        <lane id=":J13_1_0" index="0" speed="13.89" length="27.20" shape="1653.31,-357.61 1653.31,-384.81"/>
        <lane id=":J13_1_1" index="1" speed="13.89" length="27.20" shape="1656.51,-357.61 1656.51,-384.81"/>
    </edge>
    <edge id=":J13_3" function="internal">
        <lane id=":J13_3_0" index="0" speed="9.85" length="6.29" shape="1656.51,-357.61 1657.22,-363.86"/>
    </edge>
    <edge id=":J13_16" function="internal">
        <lane id=":J13_16_0" index="0" speed="9.85" length="15.73" shape="1657.22,-363.86 1657.26,-364.26 1659.52,-369.02 1663.27,-371.88 1668.53,-372.84"/>
    </edge>
    <edge id=":J13_4" function="internal">
        <lane id=":J13_4_0" index="0" speed="7.35" length="11.77" shape="1668.55,-366.44 1666.08,-365.88 1664.32,-364.23 1663.27,-361.47 1662.91,-357.61"/>
    </edge>
    <edge id=":J13_5" function="internal">
        <lane id=":J13_5_0" index="0" speed="13.89" length="20.83" shape="1668.55,-366.44 1647.71,-366.41"/>
        <lane id=":J13_5_1" index="1" speed="13.89" length="20.83" shape="1668.54,-369.64 1647.71,-369.61"/>
    </edge>
    <edge id=":J13_7" function="internal">
        <lane id=":J13_7_0" index="0" speed="9.83" length="5.51" shape="1668.54,-369.64 1663.28,-370.58 1663.15,-370.68"/>
    </edge>
    <edge id=":J13_17" function="internal">
        <lane id=":J13_17_0" index="0" speed="9.83" length="16.49" shape="1663.15,-370.68 1659.52,-373.42 1657.27,-378.16 1656.51,-384.81"/>
    </edge>
    <edge id=":J13_8" function="internal">
        <lane id=":J13_8_0" index="0" speed="7.31" length="11.71" shape="1662.91,-384.81 1663.26,-380.97 1664.32,-378.23 1666.07,-376.58 1668.52,-376.04"/>
    </edge>
    <edge id=":J13_9" function="internal">
        <lane id=":J13_9_0" index="0" speed="13.89" length="27.20" shape="1662.91,-384.81 1662.91,-357.61"/>
        <lane id=":J13_9_1" index="1" speed="13.89" length="27.20" shape="1659.71,-384.81 1659.71,-357.61"/>
    </edge>
    <edge id=":J13_11" function="internal">
        <lane id=":J13_11_0" index="0" speed="9.84" length="6.30" shape="1659.71,-384.81 1659.01,-378.56"/>
    </edge>
    <edge id=":J13_18" function="internal">
        <lane id=":J13_18_0" index="0" speed="9.84" length="15.70" shape="1659.01,-378.56 1658.96,-378.16 1656.71,-373.41 1652.96,-370.56 1647.71,-369.61"/>
    </edge>
    <edge id=":J13_12" function="internal">
        <lane id=":J13_12_0" index="0" speed="6.51" length="9.03" shape="1647.71,-379.21 1650.16,-379.56 1651.91,-380.61 1652.96,-382.36 1653.31,-384.81"/>
    </edge>
    <edge id=":J13_13" function="internal">
        <lane id=":J13_13_0" index="0" speed="13.89" length="21.12" shape="1647.71,-379.21 1654.00,-378.71 1658.31,-377.62 1662.53,-376.53 1668.52,-376.04"/>
        <lane id=":J13_13_1" index="1" speed="13.89" length="21.12" shape="1647.71,-376.01 1654.00,-375.51 1658.32,-374.42 1662.54,-373.33 1668.53,-372.84"/>
    </edge>
    <edge id=":J13_15" function="internal">
        <lane id=":J13_15_0" index="0" speed="9.84" length="3.98" shape="1647.71,-372.81 1651.63,-372.10"/>
    </edge>
    <edge id=":J13_19" function="internal">
        <lane id=":J13_19_0" index="0" speed="9.84" length="18.01" shape="1651.63,-372.10 1652.96,-371.86 1656.71,-369.01 1658.96,-364.26 1659.71,-357.61"/>
    </edge>
    <edge id=":J14_0" function="internal">
        <lane id=":J14_0_0" index="0" speed="6.51" length="9.03" shape="1653.31,-540.82 1652.96,-543.27 1651.91,-545.02 1650.16,-546.07 1647.71,-546.42"/>
    </edge>
    <edge id=":J14_1" function="internal">
        <lane id=":J14_1_0" index="0" speed="8.67" length="16.85" shape="1656.51,-540.82 1657.26,-544.67 1659.51,-547.42 1663.26,-549.07 1668.51,-549.62"/>
    </edge>
    <edge id=":J14_2" function="internal">
        <lane id=":J14_2_0" index="0" speed="6.51" length="9.03" shape="1668.51,-546.42 1666.06,-546.07 1664.31,-545.02 1663.26,-543.27 1662.91,-540.82"/>
    </edge>
    <edge id=":J14_3" function="internal">
        <lane id=":J14_3_0" index="0" speed="13.89" length="20.80" shape="1668.51,-546.42 1647.71,-546.42"/>
    </edge>
    <edge id=":J14_4" function="internal">
        <lane id=":J14_4_0" index="0" speed="13.89" length="20.80" shape="1647.71,-549.62 1668.51,-549.62"/>
    </edge>
    <edge id=":J14_5" function="internal">
        <lane id=":J14_5_0" index="0" speed="8.67" length="5.56" shape="1647.71,-549.62 1652.96,-549.07 1653.22,-548.96"/>
    </edge>
    <edge id=":J14_6" function="internal">
        <lane id=":J14_6_0" index="0" speed="8.67" length="11.29" shape="1653.22,-548.96 1656.71,-547.42 1658.96,-544.67 1659.71,-540.82"/>
    </edge>
    <edge id=":J15_0" function="internal">
        <lane id=":J15_0_0" index="0" speed="6.08" length="7.74" shape="1864.22,-211.16 1863.92,-209.06 1863.02,-207.56 1861.52,-206.66 1859.42,-206.36"/>
    </edge>
    <edge id=":J15_1" function="internal">
        <lane id=":J15_1_0" index="0" speed="3.90" length="2.58" shape="1859.42,-209.56 1860.12,-209.66 1860.62,-209.96 1860.92,-210.46 1861.02,-211.16"/>
    </edge>
    <edge id=":J16_0" function="internal">
        <lane id=":J16_0_0" index="0" speed="7.07" length="16.42" shape="1861.02,-357.04 1860.22,-359.60 1857.82,-359.97 1853.82,-358.14 1848.21,-354.11"/>
    </edge>
    <edge id=":J16_1" function="internal">
        <lane id=":J16_1_0" index="0" speed="10.95" length="27.56" shape="1861.02,-357.04 1859.73,-362.79 1855.85,-366.89 1849.38,-369.34 1840.32,-370.14"/>
    </edge>
    <edge id=":J16_2" function="internal">
        <lane id=":J16_2_0" index="0" speed="13.89" length="25.16" shape="1861.02,-357.04 1861.02,-382.19"/>
    </edge>
    <edge id=":J16_3" function="internal">
        <lane id=":J16_3_0" index="0" speed="13.89" length="25.16" shape="1864.22,-382.19 1864.22,-357.04"/>
    </edge>
    <edge id=":J16_4" function="internal">
        <lane id=":J16_4_0" index="0" speed="13.89" length="32.17" shape="1864.22,-382.19 1863.10,-376.41 1859.72,-370.22 1854.09,-363.61 1846.21,-356.60"/>
    </edge>
    <edge id=":J16_5" function="internal">
        <lane id=":J16_5_0" index="0" speed="11.36" length="29.60" shape="1864.22,-382.19 1862.73,-376.94 1858.25,-373.19 1850.78,-370.92 1840.32,-370.14"/>
    </edge>
    <edge id=":J16_6" function="internal">
        <lane id=":J16_6_0" index="0" speed="9.99" length="22.68" shape="1840.30,-376.54 1849.37,-376.91 1855.84,-377.98 1859.73,-379.74 1861.02,-382.19"/>
    </edge>
    <edge id=":J16_7" function="internal">
        <lane id=":J16_7_0" index="0" speed="11.89" length="32.68" shape="1840.31,-373.34 1850.77,-372.34 1858.24,-369.30 1862.73,-364.19 1864.22,-357.04"/>
    </edge>
    <edge id=":J16_8" function="internal">
        <lane id=":J16_8_0" index="0" speed="7.97" length="23.75" shape="1840.31,-373.34 1846.47,-371.60 1849.84,-367.29 1849.92,-361.82 1846.21,-356.60"/>
    </edge>
    <edge id=":J16_9" function="internal">
        <lane id=":J16_9_0" index="0" speed="5.46" length="10.18" shape="1842.21,-361.60 1844.60,-363.94 1845.09,-365.62 1843.66,-366.61 1840.33,-366.94"/>
    </edge>
    <edge id=":J16_10" function="internal">
        <lane id=":J16_10_0" index="0" speed="13.89" length="28.30" shape="1842.21,-361.60 1850.44,-368.54 1856.32,-374.28 1859.85,-378.83 1861.02,-382.19"/>
    </edge>
    <edge id=":J16_11" function="internal">
        <lane id=":J16_11_0" index="0" speed="8.77" length="26.14" shape="1844.21,-359.10 1851.02,-363.30 1857.49,-364.88 1862.32,-363.06 1864.22,-357.04"/>
    </edge>
    <edge id=":J17_0" function="internal">
        <lane id=":J17_0_0" index="0" speed="3.90" length="2.58" shape="1861.02,-544.82 1860.92,-545.52 1860.62,-546.02 1860.12,-546.32 1859.42,-546.42"/>
    </edge>
    <edge id=":J17_1" function="internal">
        <lane id=":J17_1_0" index="0" speed="6.08" length="7.74" shape="1859.42,-549.62 1861.52,-549.32 1863.02,-548.42 1863.92,-546.92 1864.22,-544.82"/>
    </edge>
    <edge id=":J3_0" function="internal">
        <lane id=":J3_0_0" index="0" speed="6.08" length="7.74" shape="1135.60,-206.36 1133.50,-206.66 1132.00,-207.56 1131.10,-209.06 1130.80,-211.16"/>
    </edge>
    <edge id=":J3_1" function="internal">
        <lane id=":J3_1_0" index="0" speed="3.90" length="2.58" shape="1134.00,-211.16 1134.10,-210.46 1134.40,-209.96 1134.90,-209.66 1135.60,-209.56"/>
    </edge>
    <edge id=":J4_0" function="internal">
        <lane id=":J4_0_0" index="0" speed="13.89" length="20.80" shape="1130.80,-361.39 1130.80,-382.19"/>
    </edge>
    <edge id=":J4_1" function="internal">
        <lane id=":J4_1_0" index="0" speed="8.67" length="5.56" shape="1130.80,-361.39 1131.36,-366.65 1131.47,-366.90"/>
    </edge>
    <edge id=":J4_6" function="internal">
        <lane id=":J4_6_0" index="0" speed="8.67" length="11.31" shape="1131.47,-366.90 1133.01,-370.40 1135.77,-372.64 1139.63,-373.38"/>
    </edge>
    <edge id=":J4_2" function="internal">
        <lane id=":J4_2_0" index="0" speed="6.50" length="9.03" shape="1139.61,-366.98 1137.16,-366.63 1135.40,-365.59 1134.35,-363.84 1134.00,-361.39"/>
    </edge>
    <edge id=":J4_3" function="internal">
        <lane id=":J4_3_0" index="0" speed="8.69" length="16.87" shape="1139.62,-370.18 1135.76,-370.94 1133.01,-373.20 1131.35,-376.95 1130.80,-382.19"/>
    </edge>
    <edge id=":J4_4" function="internal">
        <lane id=":J4_4_0" index="0" speed="6.53" length="9.07" shape="1134.00,-382.19 1134.36,-379.74 1135.41,-377.99 1137.17,-376.93 1139.64,-376.58"/>
    </edge>
    <edge id=":J4_5" function="internal">
        <lane id=":J4_5_0" index="0" speed="13.89" length="20.80" shape="1134.00,-382.19 1134.00,-361.39"/>
    </edge>
    <edge id=":J5_0" function="internal">
        <lane id=":J5_0_0" index="0" speed="6.08" length="7.72" shape="1130.80,-544.24 1131.10,-546.34 1132.00,-547.83 1133.49,-548.74 1135.59,-549.04"/>
    </edge>
    <edge id=":J5_1" function="internal">
        <lane id=":J5_1_0" index="0" speed="3.90" length="2.57" shape="1135.60,-545.84 1134.90,-545.74 1134.40,-545.44 1134.10,-544.94 1134.00,-544.24"/>
    </edge>
    <edge id=":J6_0" function="internal">
        <lane id=":J6_0_0" index="0" speed="13.89" length="20.80" shape="1315.49,-206.36 1294.69,-206.36"/>
    </edge>
    <edge id=":J6_1" function="internal">
        <lane id=":J6_1_0" index="0" speed="8.67" length="5.56" shape="1315.49,-206.36 1310.24,-206.91 1309.98,-207.02"/>
    </edge>
    <edge id=":J6_6" function="internal">
        <lane id=":J6_6_0" index="0" speed="8.67" length="11.29" shape="1309.98,-207.02 1306.49,-208.56 1304.24,-211.31 1303.49,-215.16"/>
    </edge>
    <edge id=":J6_2" function="internal">
        <lane id=":J6_2_0" index="0" speed="6.51" length="9.03" shape="1309.89,-215.16 1310.24,-212.71 1311.29,-210.96 1313.04,-209.91 1315.49,-209.56"/>
    </edge>
    <edge id=":J6_3" function="internal">
        <lane id=":J6_3_0" index="0" speed="8.67" length="16.85" shape="1306.69,-215.16 1305.94,-211.31 1303.69,-208.56 1299.94,-206.91 1294.69,-206.36"/>
    </edge>
    <edge id=":J6_4" function="internal">
        <lane id=":J6_4_0" index="0" speed="6.51" length="9.03" shape="1294.69,-209.56 1297.14,-209.91 1298.89,-210.96 1299.94,-212.71 1300.29,-215.16"/>
    </edge>
    <edge id=":J6_5" function="internal">
        <lane id=":J6_5_0" index="0" speed="13.89" length="20.80" shape="1294.69,-209.56 1315.49,-209.56"/>
    </edge>
    <edge id=":J7_0" function="internal">
        <lane id=":J7_0_0" index="0" speed="7.35" length="11.78" shape="1300.29,-357.61 1299.93,-361.47 1298.88,-364.23 1297.11,-365.89 1294.65,-366.45"/>
    </edge>
    <edge id=":J7_1" function="internal">
        <lane id=":J7_1_0" index="0" speed="13.89" length="27.20" shape="1300.29,-357.61 1300.29,-384.81"/>
        <lane id=":J7_1_1" index="1" speed="13.89" length="27.20" shape="1303.49,-357.61 1303.49,-384.81"/>
    </edge>
    <edge id=":J7_3" function="internal">
        <lane id=":J7_3_0" index="0" speed="9.84" length="6.30" shape="1303.49,-357.61 1304.19,-363.87"/>
    </edge>
    <edge id=":J7_16" function="internal">
        <lane id=":J7_16_0" index="0" speed="9.84" length="15.70" shape="1304.19,-363.87 1304.24,-364.26 1306.49,-369.01 1310.24,-371.86 1315.49,-372.81"/>
    </edge>
    <edge id=":J7_4" function="internal">
        <lane id=":J7_4_0" index="0" speed="6.51" length="9.03" shape="1315.49,-363.21 1313.04,-362.86 1311.29,-361.81 1310.24,-360.06 1309.89,-357.61"/>
    </edge>
    <edge id=":J7_5" function="internal">
        <lane id=":J7_5_0" index="0" speed="13.89" length="21.16" shape="1315.49,-363.21 1309.19,-363.71 1304.86,-364.82 1300.64,-365.93 1294.65,-366.45"/>
        <lane id=":J7_5_1" index="1" speed="13.89" length="21.16" shape="1315.49,-366.41 1309.19,-366.91 1304.87,-368.02 1300.65,-369.13 1294.66,-369.65"/>
    </edge>
    <edge id=":J7_7" function="internal">
        <lane id=":J7_7_0" index="0" speed="9.84" length="4.05" shape="1315.49,-369.61 1311.50,-370.33"/>
    </edge>
    <edge id=":J7_17" function="internal">
        <lane id=":J7_17_0" index="0" speed="9.84" length="17.94" shape="1311.50,-370.33 1310.24,-370.56 1306.49,-373.41 1304.24,-378.16 1303.49,-384.81"/>
    </edge>
    <edge id=":J7_8" function="internal">
        <lane id=":J7_8_0" index="0" speed="6.51" length="9.03" shape="1309.89,-384.81 1310.24,-382.36 1311.29,-380.61 1313.04,-379.56 1315.49,-379.21"/>
    </edge>
    <edge id=":J7_9" function="internal">
        <lane id=":J7_9_0" index="0" speed="13.89" length="27.20" shape="1309.89,-384.81 1309.89,-357.61"/>
        <lane id=":J7_9_1" index="1" speed="13.89" length="27.20" shape="1306.69,-384.81 1306.69,-357.61"/>
    </edge>
    <edge id=":J7_11" function="internal">
        <lane id=":J7_11_0" index="0" speed="9.83" length="6.28" shape="1306.69,-384.81 1305.98,-378.57"/>
    </edge>
    <edge id=":J7_18" function="internal">
        <lane id=":J7_18_0" index="0" speed="9.83" length="15.72" shape="1305.98,-378.57 1305.93,-378.16 1303.68,-373.42 1299.92,-370.58 1294.66,-369.65"/>
    </edge>
    <edge id=":J7_12" function="internal">
        <lane id=":J7_12_0" index="0" speed="7.31" length="11.70" shape="1294.68,-376.05 1297.13,-376.59 1298.88,-378.23 1299.94,-380.97 1300.29,-384.81"/>
    </edge>
    <edge id=":J7_13" function="internal">
        <lane id=":J7_13_0" index="0" speed="13.89" length="20.81" shape="1294.68,-376.05 1315.49,-376.01"/>
        <lane id=":J7_13_1" index="1" speed="13.89" length="20.81" shape="1294.67,-372.85 1315.49,-372.81"/>
    </edge>
    <edge id=":J7_15" function="internal">
        <lane id=":J7_15_0" index="0" speed="9.86" length="5.51" shape="1294.67,-372.85 1299.93,-371.88 1300.06,-371.78"/>
    </edge>
    <edge id=":J7_19" function="internal">
        <lane id=":J7_19_0" index="0" speed="9.86" length="16.51" shape="1300.06,-371.78 1303.68,-369.02 1305.94,-364.26 1306.69,-357.61"/>
    </edge>
    <edge id=":J8_0" function="internal">
        <lane id=":J8_0_0" index="0" speed="10.49" length="25.21" shape="1300.29,-522.99 1299.94,-533.23 1298.88,-540.55 1297.13,-544.93 1294.68,-546.39"/>
    </edge>
    <edge id=":J8_1" function="internal">
        <lane id=":J8_1_0" index="0" speed="13.37" length="41.53" shape="1300.29,-522.99 1301.84,-534.64 1306.50,-542.96 1314.27,-547.96 1325.14,-549.62"/>
    </edge>
    <edge id=":J8_2" function="internal">
        <lane id=":J8_2_0" index="0" speed="8.70" length="27.63" shape="1303.49,-522.99 1305.34,-530.42 1310.00,-534.85 1316.14,-535.52 1322.42,-531.67"/>
    </edge>
    <edge id=":J8_3" function="internal">
        <lane id=":J8_3_0" index="0" speed="5.46" length="9.87" shape="1315.38,-525.14 1312.98,-527.23 1311.26,-527.57 1310.23,-526.16 1309.89,-522.99"/>
    </edge>
    <edge id=":J8_4" function="internal">
        <lane id=":J8_4_0" index="0" speed="13.89" length="30.24" shape="1317.73,-527.32 1309.65,-535.67 1303.12,-541.63 1298.13,-545.20 1294.68,-546.39"/>
    </edge>
    <edge id=":J8_5" function="internal">
        <lane id=":J8_5_0" index="0" speed="8.79" length="27.27" shape="1320.07,-529.49 1315.94,-536.21 1315.34,-542.73 1318.38,-547.67 1325.14,-549.62"/>
    </edge>
    <edge id=":J8_6" function="internal">
        <lane id=":J8_6_0" index="0" speed="6.54" length="14.36" shape="1325.14,-546.42 1322.39,-545.77 1321.80,-543.82 1323.38,-540.57 1327.11,-536.02"/>
    </edge>
    <edge id=":J8_7" function="internal">
        <lane id=":J8_7_0" index="0" speed="12.11" length="33.87" shape="1325.14,-546.42 1317.07,-544.96 1311.30,-540.56 1307.84,-533.24 1306.69,-522.99"/>
    </edge>
    <edge id=":J8_8" function="internal">
        <lane id=":J8_8_0" index="0" speed="13.89" length="30.46" shape="1325.14,-546.42 1294.68,-546.39"/>
    </edge>
    <edge id=":J8_9" function="internal">
        <lane id=":J8_9_0" index="0" speed="13.89" length="30.47" shape="1294.67,-549.59 1325.14,-549.62"/>
    </edge>
    <edge id=":J8_10" function="internal">
        <lane id=":J8_10_0" index="0" speed="13.89" length="5.62" shape="1294.67,-549.59 1300.25,-548.88"/>
    </edge>
    <edge id=":J8_11" function="internal">
        <lane id=":J8_11_0" index="0" speed="11.78" length="2.47" shape="1294.67,-549.59 1297.03,-548.85"/>
    </edge>
    <edge id=":J8_12" function="internal">
        <lane id=":J8_12_0" index="0" speed="13.89" length="29.29" shape="1300.25,-548.88 1302.35,-548.62 1309.93,-545.68 1317.40,-540.75 1324.77,-533.84"/>
    </edge>
    <edge id=":J8_13" function="internal">
        <lane id=":J8_13_0" index="0" speed="11.78" length="29.57" shape="1297.03,-548.85 1299.93,-547.94 1303.68,-542.96 1305.94,-534.64 1306.69,-522.99"/>
    </edge>
    <edge id=":J9_0" function="internal">
        <lane id=":J9_0_0" index="0" speed="13.89" length="27.20" shape="1482.53,-206.36 1455.33,-206.36"/>
    </edge>
    <edge id=":J9_1" function="internal">