<routes>

    <vType id="two_wheeled_vehicle_0"
           vClass="bicycle" length="1.6" width="0.65" height="1.7" accel="1.2" decel="3" emergencyDecel="7" sigma="1.0" maxSpeed="20"
           guiShape="bicycle" speedFactor="2.0" speedDeviation="0.1" minGap="0.5"/>


    <vType id="two_wheeled_vehicle_1"
           vClass="moped" length="2.1" width="0.8" height="1.7" accel="1.1" decel="7" emergencyDecel="10" sigma="1.0" maxSpeed="45"
           guiShape="moped" speedFactor="2.0" speedDeviation="0.1" minGap="2.5"/>


    <vType id="two_wheeled_vehicle_2"
           vClass="motorcycle" length="2.2" width="0.9" height="1.5" accel="6" decel="10" emergencyDecel="10" sigma="1.0" maxSpeed="200"
           guiShape="motorcycle" speedFactor="2.0" speedDeviation="0.1" minGap="2.5"/>


    <vType id="two_wheeled_vehicle_3"
           vClass="passenger" length="5" width="1.8" height="1.5" accel="2.6" decel="4.5"  emergencyDecel="9" sigma="1.0" maxSpeed="200"
           guiShape="passenger" speedFactor="2.0" speedDeviation="0.1" minGap="2.5"/>


    <vType id="passenger_car_0"
           vClass="passenger" length="5" width="1.8" height="1.5" accel="2.6" decel="4.5" emergencyDecel="9" sigma="1.0" maxSpeed="200"
           guiShape="passenger/sedan" speedFactor="2.0" speedDeviation="0.1" minGap="2.5"/>


    <vType id="passenger_car_1"
           vClass="passenger" length="5" width="1.8" height="1.5" accel="2.6" decel="4.5"  emergencyDecel="9" sigma="1.0" maxSpeed="200"
           guiShape="passenger/hatchback" speedFactor="2.0" speedDeviation="0.1" minGap="2.5"/>


    <vType id="passenger_car_2"
           vClass="passenger" length="5" width="1.8" height="1.5" accel="2.6" decel="4.5" emergencyDecel="9" sigma="1.0" maxSpeed="200"
           guiShape="passenger/wagon" speedFactor="2.0" speedDeviation="0.1" minGap="2.5"/>


    <vType id="passenger_car_3"
           vClass="passenger" length="4.7" width="1.9" height="1.73" accel="2.6" decel="4.5"  emergencyDecel="9" sigma="1.0" maxSpeed="200"
           guiShape="passenger/van" speedFactor="2.0" speedDeviation="0.1" minGap="2.5"/>


    <vType id="passenger_car_4"
           vClass="taxi" length="5"  width="1.8" height="1.5" accel="2.6" decel="4.5" emergencyDecel="9" sigma="1.0" maxSpeed="200"
           guiShape="passenger" speedFactor="2.0" speedDeviation="0.05" minGap="2.5"/>


    <vType id="emergency"
           vClass="emergency" length="6.5" width="2.16" height="2.86" accel="2.6" decel="4.5" emergencyDecel="9" sigma="1.0" maxSpeed="200"
           guiShape="emergency" speedFactor="4.0" speedDeviation="0" minGap="2.5"/>


    <vType id="passenger_car_5"
           vClass="delivery" length="6.5" width="2.16" height="2.86" accel="2.6" decel="4.5" emergencyDecel="9" sigma="1.0" maxSpeed="200"
           guiShape="delivery" speedFactor="2.0" speedDeviation="0.05" minGap="2.5"/>


    <vType id="truck_0"
           vClass="truck" length="7.1" width="2.4" height="2.4" accel="1.3" decel="4" emergencyDecel="7" sigma="1.0" maxSpeed="130"
           guiShape="truck" speedFactor="2.0" speedDeviation="0.05" minGap="2.5"/>


    <vType id="truck_1"
           vClass="trailer" length="16.5" width="2.55" height="4" accel="1.1" decel="4" emergencyDecel="7" sigma="1.0" maxSpeed="130"
           guiShape="truck/semitrailer" speedFactor="2.0" speedDeviation="0.05" minGap="2.5"/>


    <vType id="truck_2"
           vClass="trailer" length="18.75" width="2.55" height="4" accel="1" decel="4" emergencyDecel="7" sigma="1.0" maxSpeed="130"
           guiShape="truck/trailer" speedFactor="2.0" speedDeviation="0.05" minGap="2.5"/>


    <vType id="bus_0"
           vClass="bus" length="12" width="2.5" height="3.4" accel="1.2" decel="4" emergencyDecel="7" sigma="1.0" maxSpeed="85"
           guiShape="bus" speedFactor="2.0" speedDeviation="0" minGap="2.5"/>


    <vType id="bus_1"
           vClass="bus" length="17.9" width="2.5" height="3.0" accel="1.2" decel="4" emergencyDecel="7" sigma="1.0" maxSpeed="85"
           guiShape="bus/flexible" speedFactor="2.0" speedDeviation="0" minGap="2.5"/>


    <vType id="bus_2"
           vClass="coach" length="14" width="2.6" height="4" accel="2.0" decel="4" emergencyDecel="7" sigma="1.0" maxSpeed="100"
           guiShape="bus/coach" speedFactor="2.0" speedDeviation="0.05" minGap="2.5"/>


    <vType id="electric_vehicle_0"
           vClass="evehicle" length="5" width="1.8" height="1.5" accel="2.6" decel="4.5" emergencyDecel="9" sigma="1.0" maxSpeed="200"
           guiShape="evehicle" speedFactor="2.0" speedDeviation="0.1" minGap="2.5"/>


    <vType id="electric_vehicle_1"
           vClass="evehicle" length="1.1" width="0.4" height="1.2" accel="2" decel="4" emergencyDecel="7" sigma="1.0" maxSpeed="20"
           guiShape="scooter" speedFactor="2.0" speedDeviation="0.1" minGap="1.5"/>


    <route id="route_0" edges="E1 E2 E7 E12 E17 -E16 -E14 E18"/>
    <route id="route_1" edges="E1 E2 E7 E12 E17 -E16 -E14 -E23 -E19"/>
    <route id="route_2" edges="E1 E2 E7 E12 E17 -E16 -E14 -E23 E20"/>
    <route id="route_3" edges="E1 E2 E7 E12 E17 -E16 E22 -E19"/>
    <route id="route_4" edges="E1 E2 E7 E12 E17 -E16 E22 E20"/>
    <route id="route_5" edges="E1 E2 E7 E12 E17 -E21"/>
    <route id="route_6" edges="E1 E2 E7 E12 -E11 -E9 E13 E18"/>
    <route id="route_7" edges="E1 E2 E7 E12 -E11 -E9 E13 -E23 -E19"/>
    <route id="route_8" edges="E1 E2 E7 E12 -E11 -E9 E13 -E23 E20"/>
    <route id="route_9" edges="E1 E2 E7 E12 -E11 -E9 E13 E14 E22 -E19"/>
    <route id="route_10" edges="E1 E2 E7 E12 -E11 -E9 E13 E14 E22 E20"/>
    <route id="route_11" edges="E1 E2 E7 E12 -E11 -E9 E13 E14 E16 -E21"/>
    <route id="route_12" edges="E1 E2 E7 E12 -E11 -E15 -E14 E18"/>
    <route id="route_13" edges="E1 E2 E7 E12 -E11 -E15 -E14 -E23 -E19"/>
    <route id="route_14" edges="E1 E2 E7 E12 -E11 -E15 -E14 -E23 E20"/>
    <route id="route_15" edges="E1 E2 E7 E12 -E11 -E15 E22 -E19"/>
    <route id="route_16" edges="E1 E2 E7 E12 -E11 -E15 E22 E20"/>
    <route id="route_17" edges="E1 E2 E7 E12 -E11 -E15 E16 -E21"/>
    <route id="route_18" edges="E1 E2 E7 -E24 -E9 E13 E18"/>
    <route id="route_19" edges="E1 E2 E7 -E24 -E9 E13 -E23 -E19"/>
    <route id="route_20" edges="E1 E2 E7 -E24 -E9 E13 -E23 E20"/>
    <route id="route_21" edges="E1 E2 E7 -E24 -E9 E13 E14 E22 -E19"/>
    <route id="route_22" edges="E1 E2 E7 -E24 -E9 E13 E14 E22 E20"/>
    <route id="route_23" edges="E1 E2 E7 -E24 -E9 E13 E14 E16 -E21"/>
    <route id="route_24" edges="E1 E2 E7 -E24 -E15 -E14 E18"/>
    <route id="route_25" edges="E1 E2 E7 -E24 -E15 -E14 -E23 -E19"/>
    <route id="route_26" edges="E1 E2 E7 -E24 -E15 -E14 -E23 E20"/>
    <route id="route_27" edges="E1 E2 E7 -E24 -E15 E22 -E19"/>
    <route id="route_28" edges="E1 E2 E7 -E24 -E15 E22 E20"/>
    <route id="route_29" edges="E1 E2 E7 -E24 -E15 E16 -E21"/>
    <route id="route_30" edges="E1 E2 E7 -E24 E11 E17 -E16 -E14 E18"/>
    <route id="route_31" edges="E1 E2 E7 -E24 E11 E17 -E16 -E14 -E23 -E19"/>
    <route id="route_32" edges="E1 E2 E7 -E24 E11 E17 -E16 -E14 -E23 E20"/>
    <route id="route_33" edges="E1 E2 E7 -E24 E11 E17 -E16 E22 -E19"/>
    <route id="route_34" edges="E1 E2 E7 -E24 E11 E17 -E16 E22 E20"/>
    <route id="route_35" edges="E1 E2 E7 -E24 E11 E17 -E21"/>
    <route id="route_36" edges="E1 E2 E7 -E6 -E10 -E9 E13 E18"/>
    <route id="route_37" edges="E1 E2 E7 -E6 -E10 -E9 E13 -E23 -E19"/>
    <route id="route_38" edges="E1 E2 E7 -E6 -E10 -E9 E13 -E23 E20"/>
    <route id="route_39" edges="E1 E2 E7 -E6 -E10 -E9 E13 E14 E22 -E19"/>
    <route id="route_40" edges="E1 E2 E7 -E6 -E10 -E9 E13 E14 E22 E20"/>
    <route id="route_41" edges="E1 E2 E7 -E6 -E10 -E9 E13 E14 E16 -E21"/>
    <route id="route_42" edges="E1 E2 E7 -E6 -E10 -E15 -E14 E18"/>
    <route id="route_43" edges="E1 E2 E7 -E6 -E10 -E15 -E14 -E23 -E19"/>
    <route id="route_44" edges="E1 E2 E7 -E6 -E10 -E15 -E14 -E23 E20"/>
    <route id="route_45" edges="E1 E2 E7 -E6 -E10 -E15 E22 -E19"/>
    <route id="route_46" edges="E1 E2 E7 -E6 -E10 -E15 E22 E20"/>
    <route id="route_47" edges="E1 E2 E7 -E6 -E10 -E15 E16 -E21"/>
    <route id="route_48" edges="E1 E2 E7 -E6 -E10 E11 E17 -E16"/>
    <route id="route_49" edges="E1 E2 E7 -E6 -E10 E11 E17 -E21"/>
    <route id="route_50" edges="E1 E2 E7 -E6 -E4 E8 E13 E18"/>
    <route id="route_51" edges="E1 E2 E7 -E6 -E4 E8 E13 -E23 -E19"/>
    <route id="route_52" edges="E1 E2 E7 -E6 -E4 E8 E13 -E23 E20"/>
    <route id="route_53" edges="E1 E2 E7 -E6 -E4 E8 E13 E14 E22 -E19"/>
    <route id="route_54" edges="E1 E2 E7 -E6 -E4 E8 E13 E14 E22 E20"/>
    <route id="route_55" edges="E1 E2 E7 -E6 -E4 E8 E13 E14 E16 -E21"/>
    <route id="route_56" edges="E1 E2 E7 -E6 -E4 E8 E9 -E15 -E14 E18"/>
    <route id="route_57" edges="E1 E2 E7 -E6 -E4 E8 E9 E11 E17 -E16 -E14 -E23 -E19"/>
    <route id="route_58" edges="E1 E2 E7 -E6 -E4 E8 E9 E11 E17 -E16 -E14 -E23 E20"/>
    <route id="route_59" edges="E1 E2 E7 -E6 -E4 E8 E9 -E15 E22 -E19"/>
    <route id="route_60" edges="E1 E2 E7 -E6 -E4 E8 E9 -E15 E22 E20"/>
    <route id="route_61" edges="E1 E2 E7 -E6 -E4 E8 E9 -E15 E16 -E21"/>
    <route id="route_62" edges="E1 E2 E7 -E6 -E4 E8 E9 E11 E17 -E16 -E14 E18"/>
    <route id="route_63" edges="E1 E2 E7 -E6 -E4 E8 E9 E11 E17 -E16 -E14 -E23 -E19"/>
    <route id="route_64" edges="E1 E2 E7 -E6 -E4 E8 E9 E11 E17 -E16 -E14 -E23 E20"/>
    <route id="route_65" edges="E1 E2 E7 -E6 -E4 E8 E9 E11 E17 -E16 E22 -E19"/>
    <route id="route_66" edges="E1 E2 E7 -E6 -E4 E8 E9 E11 E17 -E16 E22 E20"/>
    <route id="route_67" edges="E1 E2 E7 -E6 -E4 E8 E9 E11 E17 -E21"/>
    <route id="route_68" edges="E1 E5 E6 -E24 -E9 E13 E18"/>
    <route id="route_69" edges="E1 E5 E6 -E24 -E9 E13 -E23 -E19"/>
    <route id="route_70" edges="E1 E5 E6 -E24 -E9 E13 -E23 E20"/>
    <route id="route_71" edges="E1 E5 E6 -E24 -E9 E13 E14 E22 -E19"/>
    <route id="route_72" edges="E1 E5 E6 -E24 -E9 E13 E14 E22 E20"/>
    <route id="route_73" edges="E1 E5 E6 -E24 -E9 E13 E14 E16 -E21"/>
    <route id="route_74" edges="E1 E5 E6 -E24 -E15 -E14 E18"/>
    <route id="route_75" edges="E1 E5 E6 -E24 -E15 -E14 -E23 -E19"/>
    <route id="route_76" edges="E1 E5 E6 -E24 -E15 -E14 -E23 E20"/>
    <route id="route_77" edges="E1 E5 E6 -E24 -E15 E22 -E19"/>
    <route id="route_78" edges="E1 E5 E6 -E24 -E15 E22 E20"/>
    <route id="route_79" edges="E1 E5 E6 -E24 -E15 E16 -E21"/>
    <route id="route_80" edges="E1 E5 E6 -E24 E11 E17 -E16 -E14 E18"/>
    <route id="route_81" edges="E1 E5 E6 -E24 E11 E17 -E21"/>
    <route id="route_82" edges="E1 E5 E6 E12 E17 -E16 -E14 E18"/>
    <route id="route_83" edges="E1 E5 E6 E12 E17 -E16 -E14 -E23"/>
    <route id="route_84" edges="E1 E5 E6 E12 E17 -E16 E22 -E19"/>
    <route id="route_85" edges="E1 E5 E6 E12 E17 -E16 E22 E20"/>
    <route id="route_86" edges="E1 E5 E6 E12 E17 -E21"/>
    <route id="route_87" edges="E1 E5 E6 E12 -E11 -E9 E13 E18"/>
    <route id="route_88" edges="E1 E5 E6 E12 -E11 -E9 E13 -E23 -E19"/>
    <route id="route_89" edges="E1 E5 E6 E12 -E11 -E9 E13 -E23 E20"/>
    <route id="route_90" edges="E1 E5 E6 E12 -E11 -E9 E13 E14 E22 -E19"/>
    <route id="route_91" edges="E1 E5 E6 E12 -E11 -E9 E13 E14 E22 E20"/>
    <route id="route_92" edges="E1 E5 E6 E12 -E11 -E9 E13 E14 E16 -E21"/>
    <route id="route_93" edges="E1 E5 E6 E12 -E11 -E15 -E14 E18"/>
    <route id="route_94" edges="E1 E5 E6 E12 -E11 -E15 -E14 -E23 -E19"/>
    <route id="route_95" edges="E1 E5 E6 E12 -E11 -E15 -E14 -E23 E20"/>
    <route id="route_96" edges="E1 E5 E6 E12 -E11 -E15 E22 -E19"/>
    <route id="route_97" edges="E1 E5 E6 E12 -E11 -E15 E22 E20"/>
    <route id="route_98" edges="E1 E5 E6 E12 -E11 -E15 E16 -E21"/>
    <route id="route_99" edges="E1 E5 -E4 E8 E13 E18"/>
    <route id="route_100" edges="E1 E5 -E4 E8 E13 -E23 -E19"/>
    <route id="route_101" edges="E1 E5 -E4 E8 E13 -E23 E20"/>
    <route id="route_102" edges="E1 E5 -E4 E8 E13 E14 E22 -E19"/>
    <route id="route_103" edges="E1 E5 -E4 E8 E13 E14 E22 E20"/>
    <route id="route_104" edges="E1 E5 -E4 E8 E13 E14 E16 -E21"/>
    <route id="route_105" edges="E1 E5 -E4 E8 E9 -E15 -E14 E18"/>
    <route id="route_106" edges="E1 E5 -E4 E8 E9 -E15 -E14 -E23"/>
    <route id="route_107" edges="E1 E5 -E4 E8 E9 -E15 E22 -E19"/>
    <route id="route_108" edges="E1 E5 -E4 E8 E9 -E15 E22 E20"/>
    <route id="route_109" edges="E1 E5 -E4 E8 E9 -E15 E16 -E21"/>
    <route id="route_110" edges="E1 E5 -E4 E8 E9 E11 E17 -E16 -E14 E18"/>
    <route id="route_111" edges="E1 E5 -E4 E8 E9 E11 E17 -E16 -E14 -E23 -E19"/>
    <route id="route_112" edges="E1 E5 -E4 E8 E9 E11 E17 -E16 -E14 -E23 E20"/>
    <route id="route_113" edges="E1 E5 -E4 E8 E9 E11 E17 -E16 E22 -E19"/>
    <route id="route_114" edges="E1 E5 -E4 E8 E9 E11 E17 -E16 E22 E20"/>
    <route id="route_115" edges="E1 E5 -E4 E8 E9 E11 E17 -E21"/>
    <route id="route_116" edges="E1 E5 -E10 -E9 E13 E18"/>
    <route id="route_117" edges="E1 E5 -E10 -E9 E13 -E23 -E19"/>
    <route id="route_118" edges="E1 E5 -E10 -E9 E13 -E23 E20"/>
    <route id="route_119" edges="E1 E5 -E10 -E9 E13 E14 E22 -E19"/>
    <route id="route_120" edges="E1 E5 -E10 -E9 E13 E14 E22 E20"/>
    <route id="route_121" edges="E1 E5 -E10 -E9 E13 E14 E16 -E21"/>
    <route id="route_122" edges="E1 E5 -E10 E11 E17 -E16 -E14 E18"/>
    <route id="route_123" edges="E1 E5 -E10 E11 E17 -E16 -E14 -E23 -E19"/>
    <route id="route_124" edges="E1 E5 -E10 E11 E17 -E16 -E14 -E23 E20"/>
    <route id="route_125" edges="E1 E5 -E10 E11 E17 -E16 E22 -E19"/>
    <route id="route_126" edges="E1 E5 -E10 E11 E17 -E16 E22 E20"/>
    <route id="route_127" edges="E1 E5 -E10 E11 E17 -E21"/>
    <route id="route_128" edges="E1 E5 -E10 -E15 -E14 E18"/>
    <route id="route_129" edges="E1 E5 -E10 -E15 -E14 -E23 -E19"/>
    <route id="route_130" edges="E1 E5 -E10 -E15 -E14 -E23 E20"/>
    <route id="route_131" edges="E1 E5 -E10 -E15 E22 -E19"/>
    <route id="route_132" edges="E1 E5 -E10 -E15 E22 E20"/>
    <route id="route_133" edges="E1 E5 -E10 -E15 E16 -E21"/>

    <route id="route_134" edges="-E20 E23 -E13 E9 E10 E6 -E7"/>
    <route id="route_135" edges="-E20 E23 -E13 E9 E10 -E4 -E3"/>
    <route id="route_136" edges="-E20 E23 -E13 E9 E10 -E5 -E1"/>
    <route id="route_137" edges="-E20 E23 -E13 E9 E10 -E5 E2"/>
    <route id="route_138" edges="-E20 E23 -E13 E9 E11 -E12 -E6 -E4 -E3"/>
    <route id="route_139" edges="-E20 E23 -E13 E9 E11 -E12 -E6 -E5 -E1"/>
    <route id="route_140" edges="-E20 E23 -E13 E9 E11 -E12 -E6 -E5 E2"/>
    <route id="route_141" edges="-E20 E23 -E13 E9 E11 -E12 -E7"/>
    <route id="route_142" edges="-E20 E23 -E13 E9 E24 -E7"/>
    <route id="route_143" edges="-E20 E23 -E13 E9 E24 -E6 -E4 -E3"/>
    <route id="route_144" edges="-E20 E23 -E13 E9 E24 -E6 -E5 -E1"/>
    <route id="route_145" edges="-E20 E23 -E13 E9 E24 -E6 -E5 E2"/>
    <route id="route_146" edges="-E20 E23 -E13 -E8 E4 E6 -E7"/>
    <route id="route_147" edges="-E20 E23 -E13 -E8 E4 -E5 -E1"/>
    <route id="route_148" edges="-E20 E23 -E13 -E8 E4 -E5 E2"/>
    <route id="route_149" edges="-E20 E23 -E13 -E8 -E3"/>
    <route id="route_150" edges="-E20 E23 E14 E15 -E9 -E8 -E3"/>
    <route id="route_151" edges="-E20 E23 E14 E15 -E9 -E8 E4 E6 -E7"/>
    <route id="route_152" edges="-E20 E23 E14 E15 -E9 -E8 E4 -E5 -E1"/>
    <route id="route_153" edges="-E20 E23 E14 E15 -E9 -E8 E4 -E5 E2"/>
    <route id="route_154" edges="-E20 E23 E14 E15 E10 E6 -E7"/>
    <route id="route_155" edges="-E20 E23 E14 E15 E10 -E4 -E3"/>
    <route id="route_156" edges="-E20 E23 E14 E15 E10 -E5 -E1"/>
    <route id="route_157" edges="-E20 E23 E14 E15 E10 -E5 E2"/>
    <route id="route_158" edges="-E20 E23 E14 E15 E11 -E12 -E7"/>
    <route id="route_159" edges="-E20 E23 E14 E15 E11 -E12 -E6 -E4 -E3"/>
    <route id="route_160" edges="-E20 E23 E14 E15 E11 -E12 -E6 -E5 -E1"/>
    <route id="route_161" edges="-E20 E23 E14 E15 E11 -E12 -E6 -E5 E2"/>
    <route id="route_162" edges="-E20 E23 E14 E15 E24 -E7"/>
    <route id="route_163" edges="-E20 E23 E14 E15 E24 -E6 -E4"/>
    <route id="route_164" edges="-E20 E23 E14 E15 E24 -E6 -E5 -E1"/>
    <route id="route_165" edges="-E20 E23 E14 E15 E24 -E6 -E5 E2"/>
    <route id="route_166" edges="-E20 E23 E14 E16 -E17 -E11 E10 E6 -E7"/>
    <route id="route_167" edges="-E20 E23 E14 E16 -E17 -E11 E10 -E4 -E3"/>
    <route id="route_168" edges="-E20 E23 E14 E16 -E17 -E11 E10 -E5 -E1"/>
    <route id="route_169" edges="-E20 E23 E14 E16 -E17 -E11 E10 -E5 E2"/>
    <route id="route_170" edges="-E20 E23 E14 E16 -E17 -E11 E24 -E7"/>
    <route id="route_171" edges="-E20 E23 E14 E16 -E17 -E11 E24 -E6 -E4 -E3"/>
    <route id="route_172" edges="-E20 E23 E14 E16 -E17 -E11 E24 -E6 -E5 -E1"/>
    <route id="route_173" edges="-E20 E23 E14 E16 -E17 -E11 E24 -E6 -E5 E2"/>
    <route id="route_174" edges="-E20 E23 E14 E16 -E17 -E11 -E9 -E8 E4 E6 -E7"/>
    <route id="route_175" edges="-E20 E23 E14 E16 -E17 -E11 -E9 -E8 E4 -E5 -E1"/>
    <route id="route_176" edges="-E20 E23 E14 E16 -E17 -E11 -E9 -E8 E4 -E5 E2"/>
    <route id="route_177" edges="-E20 E23 E14 E16 -E17 -E11 -E9 -E8 -E3"/>
    <route id="route_178" edges="-E20 E23 E14 E16 -E17 -E12 -E7"/>
    <route id="route_179" edges="-E20 E23 E14 E16 -E17 -E12 -E6 -E4 -E3"/>
    <route id="route_180" edges="-E20 E23 E14 E16 -E17 -E12 -E6 -E5 -E1"/>
    <route id="route_181" edges="-E20 E23 E14 E16 -E17 -E12 -E6 -E5 E2"/>
    <route id="route_182" edges="-E20 -E19 -E18 E14 E15 -E9 -E8 -E3"/>
    <route id="route_183" edges="-E20 -E19 -E18 E14 E15 -E9 -E8 E4 E6 -E7"/>
    <route id="route_184" edges="-E20 -E19 -E18 E14 E15 -E9 -E8 E4 -E5 -E1"/>
    <route id="route_185" edges="-E20 -E19 -E18 E14 E15 -E9 -E8 E4 -E5 E2"/>
    <route id="route_186" edges="-E20 -E19 -E18 E14 E15 E10 E6 -E7"/>
    <route id="route_187" edges="-E20 -E19 -E18 E14 E15 E10 -E4 -E3"/>
    <route id="route_188" edges="-E20 -E19 -E18 E14 E15 E10 -E5 -E1"/>
    <route id="route_189" edges="-E20 -E19 -E18 E14 E15 E10 -E5 E2"/>
    <route id="route_190" edges="-E20 -E19 -E18 E14 E15 E11 -E12 -E6 -E4 -E3"/>
    <route id="route_191" edges="-E20 -E19 -E18 E14 E15 E11 -E12 -E6 -E5 -E1"/>
    <route id="route_192" edges="-E20 -E19 -E18 E14 E15 E11 -E12 -E6 -E5 E2"/>
    <route id="route_193" edges="-E20 -E19 -E18 E14 E15 E11 -E12 -E7"/>
    <route id="route_194" edges="-E20 -E19 -E18 E14 E15 E24 -E6 -E4"/>
    <route id="route_195" edges="-E20 -E19 -E18 E14 E15 E24 -E6 -E5 -E1"/>
    <route id="route_196" edges="-E20 -E19 -E18 E14 E15 E24 -E6 -E5 E2"/>
    <route id="route_197" edges="-E20 -E19 -E18 E14 E15 E24 -E7"/>
    <route id="route_198" edges="-E20 -E19 -E18 E14 E16 -E17 -E11 E10 E6 -E7"/>
    <route id="route_199" edges="-E20 -E19 -E18 E14 E16 -E17 -E11 E10 -E4 -E3"/>
    <route id="route_200" edges="-E20 -E19 -E18 E14 E16 -E17 -E11 E10 -E5 -E1"/>
    <route id="route_201" edges="-E20 -E19 -E18 E14 E16 -E17 -E11 E10 -E5 E2"/>
    <route id="route_202" edges="-E20 -E19 -E18 E14 E16 -E17 -E11 E24 -E7"/>
    <route id="route_203" edges="-E20 -E19 -E18 E14 E16 -E17 -E11 E24 -E6 -E4 -E3"/>
    <route id="route_204" edges="-E20 -E19 -E18 E14 E16 -E17 -E11 E24 -E6 -E5 -E1"/>
    <route id="route_205" edges="-E20 -E19 -E18 E14 E16 -E17 -E11 E24 -E6 -E5 E2"/>
    <route id="route_206" edges="-E20 -E19 -E18 E14 E16 -E17 -E11 -E9 -E8 -E3"/>
    <route id="route_207" edges="-E20 -E19 -E18 E14 E16 -E17 -E11 -E9 -E8 E4 E6 -E7"/>
    <route id="route_208" edges="-E20 -E19 -E18 E14 E16 -E17 -E11 -E9 -E8 E4 -E5 -E1"/>
    <route id="route_209" edges="-E20 -E19 -E18 E14 E16 -E17 -E11 -E9 -E8 E4 -E5 E2"/>
    <route id="route_210" edges="-E20 -E19 -E18 E14 E16 -E17 -E12 -E7"/>
    <route id="route_211" edges="-E20 -E19 -E18 E14 E16 -E17 -E12 -E6 -E4 -E3"/>
    <route id="route_212" edges="-E20 -E19 -E18 E14 E16 -E17 -E12 -E6 -E5 -E1"/>
    <route id="route_213" edges="-E20 -E19 -E18 E14 E16 -E17 -E12 -E6 -E5 E2"/>
    <route id="route_214" edges="-E20 -E19 -E18 -E13 E9 E10 E6 -E7"/>
    <route id="route_215" edges="-E20 -E19 -E18 -E13 E9 E10 -E5 -E1"/>
    <route id="route_216" edges="-E20 -E19 -E18 -E13 E9 E10 -E5 E2"/>
    <route id="route_217" edges="-E20 -E19 -E18 -E13 E9 E11 -E12 -E7"/>
    <route id="route_218" edges="-E20 -E19 -E18 -E13 E9 E11 -E12 -E6 -E4"/>
    <route id="route_219" edges="-E20 -E19 -E18 -E13 E9 E11 -E12 -E6 -E5 -E1"/>
    <route id="route_220" edges="-E20 -E19 -E18 -E13 E9 E11 -E12 -E6 -E5 E2"/>
    <route id="route_221" edges="-E20 -E19 -E18 -E13 E9 E24 -E7"/>
    <route id="route_222" edges="-E20 -E19 -E18 -E13 E9 E24 -E6 -E4 -E3"/>
    <route id="route_223" edges="-E20 -E19 -E18 -E13 E9 E24 -E6 -E5 -E1"/>
    <route id="route_224" edges="-E20 -E19 -E18 -E13 E9 E24 -E6 -E5 E2"/>
    <route id="route_225" edges="-E20 -E19 -E18 -E13 -E8 -E3"/>
    <route id="route_226" edges="-E20 -E19 -E18 -E13 -E8 E4 E6 -E7"/>
    <route id="route_227" edges="-E20 -E19 -E18 -E13 -E8 E4 -E5 -E1"/>
    <route id="route_228" edges="-E20 -E19 -E18 -E13 -E8 E4 -E5 E2"/>
    <route id="route_229" edges="-E20 -E19 -E18 -E23 -E22 E15 -E9 -E8 -E3"/>
    <route id="route_230" edges="-E20 -E19 -E18 -E23 -E22 E15 -E9 -E8 E4 E6 -E7"/>
    <route id="route_231" edges="-E20 -E19 -E18 -E23 -E22 E15 -E9 -E8 E4 -E5 -E1"/>
    <route id="route_232" edges="-E20 -E19 -E18 -E23 -E22 E15 -E9 -E8 E4 -E5 E2"/>
    <route id="route_233" edges="-E20 -E19 -E18 -E23 -E22 E15 E10 E6 -E7"/>
    <route id="route_234" edges="-E20 -E19 -E18 -E23 -E22 E15 E10 -E4 -E3"/>
    <route id="route_235" edges="-E20 -E19 -E18 -E23 -E22 E15 E10 -E5 -E1"/>
    <route id="route_236" edges="-E20 -E19 -E18 -E23 -E22 E15 E10 -E5 E2"/>
    <route id="route_237" edges="-E20 -E19 -E18 -E23 -E22 E15 E11 -E12 -E7"/>
    <route id="route_238" edges="-E20 -E19 -E18 -E23 -E22 E15 E11 -E12 -E6 -E4 -E3"/>
    <route id="route_239" edges="-E20 -E19 -E18 -E23 -E22 E15 E11 -E12 -E6 -E5 -E1"/>
    <route id="route_240" edges="-E20 -E19 -E18 -E23 -E22 E15 E11 -E12 -E6 -E5 E2"/>
    <route id="route_241" edges="-E20 -E19 -E18 -E23 -E22 E15 E24 -E7"/>
    <route id="route_242" edges="-E20 -E19 -E18 -E23 -E22 E15 E24 -E6 -E4 -E3"/>
    <route id="route_243" edges="-E20 -E19 -E18 -E23 -E22 E15 E24 -E6 -E5 -E1"/>
    <route id="route_244" edges="-E20 -E19 -E18 -E23 -E22 E15 E24 -E6 -E5 E2"/>
    <route id="route_245" edges="-E20 -E19 -E18 -E23 -E22 E16 -E17 -E11 E10 E6 -E7"/>
    <route id="route_246" edges="-E20 -E19 -E18 -E23 -E22 E16 -E17 -E11 E10 -E4 -E3"/>
    <route id="route_247" edges="-E20 -E19 -E18 -E23 -E22 E16 -E17 -E11 E10 -E5 -E1"/>
    <route id="route_248" edges="-E20 -E19 -E18 -E23 -E22 E16 -E17 -E11 E10 -E5 E2"/>
    <route id="route_249" edges="-E20 -E19 -E18 -E23 -E22 E16 -E17 -E11 E24 -E7"/>
    <route id="route_250" edges="-E20 -E19 -E18 -E23 -E22 E16 -E17 -E11 E24 -E6 -E4 -E3"/>
    <route id="route_251" edges="-E20 -E19 -E18 -E23 -E22 E16 -E17 -E11 E24 -E6 -E5 -E1"/>
    <route id="route_252" edges="-E20 -E19 -E18 -E23 -E22 E16 -E17 -E11 E24 -E6 -E5 E2"/>
    <route id="route_253" edges="-E20 -E19 -E18 -E23 -E22 E16 -E17 -E11 -E9 -E8 -E3"/>
    <route id="route_254" edges="-E20 -E19 -E18 -E23 -E22 E16 -E17 -E11 -E9 -E8 E4 E6 -E7"/>
    <route id="route_255" edges="-E20 -E19 -E18 -E23 -E22 E16 -E17 -E11 -E9 -E8 E4 -E5 -E1"/>
    <route id="route_256" edges="-E20 -E19 -E18 -E23 -E22 E16 -E17 -E11 -E9 -E8 E4 -E5 E2"/>
    <route id="route_257" edges="-E20 -E19 -E18 -E23 -E22 E16 -E17 -E12 -E7"/>
    <route id="route_258" edges="-E20 -E19 -E18 -E23 -E22 E16 -E17 -E12 -E6 -E4 -E3"/>
    <route id="route_259" edges="-E20 -E19 -E18 -E23 -E22 E16 -E17 -E12 -E6 -E5 -E1"/>
    <route id="route_260" edges="-E20 -E19 -E18 -E23 -E22 E16 -E17 -E12 -E6 -E5 E2"/>
    <route id="route_261" edges="-E20 -E19 -E18 -E23 -E22 -E14 -E13 E9 E10 E6 -E7"/>
    <route id="route_262" edges="-E20 -E19 -E18 -E23 -E22 -E14 -E13 E9 E10 -E4 -E3"/>
    <route id="route_263" edges="-E20 -E19 -E18 -E23 -E22 -E14 -E13 E9 E10 -E5 -E1"/>
    <route id="route_264" edges="-E20 -E19 -E18 -E23 -E22 -E14 -E13 E9 E10 -E5 E2"/>
    <route id="route_265" edges="-E20 -E19 -E18 -E23 -E22 -E14 -E13 E9 E11 -E12 -E6 -E4 -E3"/>
    <route id="route_266" edges="-E20 -E19 -E18 -E23 -E22 -E14 -E13 E9 E11 -E12 -E6 -E5 -E1"/>
    <route id="route_267" edges="-E20 -E19 -E18 -E23 -E22 -E14 -E13 E9 E11 -E12 -E6 -E5 E2"/>
    <route id="route_268" edges="-E20 -E19 -E18 -E23 -E22 -E14 -E13 E9 E11 -E12 -E7"/>
    <route id="route_269" edges="-E20 -E19 -E18 -E23 -E22 -E14 -E13 E9 E24 -E7"/>
    <route id="route_270" edges="-E20 -E19 -E18 -E23 -E22 -E14 -E13 E9 E24 -E6 -E4 -E3"/>
    <route id="route_271" edges="-E20 -E19 -E18 -E23 -E22 -E14 -E13 E9 E24 -E6 -E5 -E1"/>
    <route id="route_272" edges="-E20 -E19 -E18 -E23 -E22 -E14 -E13 E9 E24 -E6 -E5 E2"/>
    <route id="route_273" edges="-E20 -E19 -E18 -E23 -E22 -E14 -E13 -E8 -E3"/>
    <route id="route_274" edges="-E20 -E19 -E18 -E23 -E22 -E14 -E13 -E8 E4 E6 -E7"/>
    <route id="route_275" edges="-E20 -E19 -E18 -E23 -E22 -E14 -E13 -E8 E4 -E5 -E1"/>
    <route id="route_276" edges="-E20 -E19 -E18 -E23 -E22 -E14 -E13 -E8 E4 -E5 E2"/>
    <route id="route_277" edges="-E20 -E22 E15 -E9 -E8 -E3"/>
    <route id="route_278" edges="-E20 -E22 E15 -E9 -E8 E4 E6 -E7"/>
    <route id="route_279" edges="-E20 -E22 E15 -E9 -E8 E4 -E5 -E1"/>
    <route id="route_280" edges="-E20 -E22 E15 -E9 -E8 E4 -E5 E2"/>
    <route id="route_281" edges="-E20 -E22 E15 E10 E6 -E7"/>
    <route id="route_282" edges="-E20 -E22 E15 E10 -E4 -E3"/>
    <route id="route_283" edges="-E20 -E22 E15 E10 -E5 -E1"/>
    <route id="route_284" edges="-E20 -E22 E15 E10 -E5 E2"/>
    <route id="route_285" edges="-E20 -E22 E15 E11 -E12 -E7"/>
    <route id="route_286" edges="-E20 -E22 E15 E11 -E12 -E6 -E4 -E3"/>
    <route id="route_287" edges="-E20 -E22 E15 E11 -E12 -E6 -E5 -E1"/>
    <route id="route_288" edges="-E20 -E22 E15 E11 -E12 -E6 -E5 E2"/>
    <route id="route_289" edges="-E20 -E22 E15 E24 -E7"/>
    <route id="route_290" edges="-E20 -E22 E15 E24 -E6 -E4 -E3"/>
    <route id="route_291" edges="-E20 -E22 E15 E24 -E6 -E5 -E1"/>
    <route id="route_292" edges="-E20 -E22 E15 E24 -E6 -E5 E2"/>
    <route id="route_293" edges="-E20 -E22 E16 -E17 -E11 E10 E6 -E7"/>
    <route id="route_294" edges="-E20 -E22 E16 -E17 -E11 E10 -E4 -E3"/>
    <route id="route_295" edges="-E20 -E22 E16 -E17 -E11 E10 -E5 -E1"/>
    <route id="route_296" edges="-E20 -E22 E16 -E17 -E11 E10 -E5 E2"/>
    <route id="route_297" edges="-E20 -E22 E16 -E17 -E11 E24 -E7"/>
    <route id="route_298" edges="-E20 -E22 E16 -E17 -E11 E24 -E6 -E4 -E3"/>
    <route id="route_299" edges="-E20 -E22 E16 -E17 -E11 E24 -E6 -E5 -E1"/>
    <route id="route_300" edges="-E20 -E22 E16 -E17 -E11 E24 -E6 -E5 E2"/>
    <route id="route_301" edges="-E20 -E22 E16 -E17 -E11 -E9 -E8 -E3"/>
    <route id="route_302" edges="-E20 -E22 E16 -E17 -E11 -E9 -E8 E4 E6 -E7"/>
    <route id="route_303" edges="-E20 -E22 E16 -E17 -E11 -E9 -E8 E4 -E5 -E1"/>
    <route id="route_304" edges="-E20 -E22 E16 -E17 -E11 -E9 -E8 E4 -E5 E2"/>
    <route id="route_305" edges="-E20 -E22 E16 -E17 -E12 -E6 -E4 -E3"/>
    <route id="route_306" edges="-E20 -E22 E16 -E17 -E12 -E6 -E5 -E1"/>
    <route id="route_307" edges="-E20 -E22 E16 -E17 -E12 -E6 -E5 E2"/>
    <route id="route_308" edges="-E20 -E22 E16 -E17 -E12 -E7"/>
    <route id="route_309" edges="-E20 -E22 -E14 -E13 E9 E10 E6 -E7"/>
    <route id="route_310" edges="-E20 -E22 -E14 -E13 E9 E10 -E4 -E3"/>
    <route id="route_311" edges="-E20 -E22 -E14 -E13 E9 E10 -E5 -E1"/>
    <route id="route_312" edges="-E20 -E22 -E14 -E13 E9 E10 -E5 E2"/>
    <route id="route_313" edges="-E20 -E22 -E14 -E13 E9 E11 -E12 -E7"/>
    <route id="route_314" edges="-E20 -E22 -E14 -E13 E9 E11 -E12 -E6 -E4 -E3"/>
    <route id="route_315" edges="-E20 -E22 -E14 -E13 E9 E11 -E12 -E6 -E5 -E1"/>
    <route id="route_316" edges="-E20 -E22 -E14 -E13 E9 E11 -E12 -E6 -E5 E2"/>
    <route id="route_317" edges="-E20 -E22 -E14 -E13 E9 E24 -E7"/>
    <route id="route_318" edges="-E20 -E22 -E14 -E13 E9 E24 -E6 -E4 -E3"/>
    <route id="route_319" edges="-E20 -E22 -E14 -E13 E9 E24 -E6 -E5 -E1"/>
    <route id="route_320" edges="-E20 -E22 -E14 -E13 E9 E24 -E6 -E5 E2"/>
    <route id="route_321" edges="-E20 -E22 -E14 -E13 -E8 -E3"/>
    <route id="route_322" edges="-E20 -E22 -E14 -E13 -E8 E4 E6 -E7"/>
    <route id="route_323" edges="-E20 -E22 -E14 -E13 -E8 E4 -E5 -E1"/>
    <route id="route_324" edges="-E20 -E22 -E14 -E13 -E8 E4 -E5 E2"/>





    <flow id="vehicleflow_0" type="two_wheeled_vehicle_0" beg="0" end="125"  number="5" route="route_0"/>
    <flow id="vehicleflow_1" type="two_wheeled_vehicle_1" beg="150" end="275"  number="5" route="route_1"/>
    <flow id="vehicleflow_2" type="two_wheeled_vehicle_2" beg="300" end="425"  number="5" route="route_2"/>
    <flow id="vehicleflow_3" type="two_wheeled_vehicle_3" beg="450" end="575"  number="5" route="route_3"/>
    <flow id="vehicleflow_4" type="passenger_car_0" beg="600" end="725"  number="5" route="route_4"/>
    <flow id="vehicleflow_5" type="passenger_car_1" beg="750" end="875"  number="5" route="route_5"/>
    <flow id="vehicleflow_6" type="passenger_car_2" beg="900" end="1025"  number="5" route="route_6"/>
    <flow id="vehicleflow_7" type="passenger_car_3" beg="1050" end="1175"  number="5" route="route_7"/>
    <flow id="vehicleflow_8" type="passenger_car_4" beg="1200" end="1325"  number="5" route="route_8"/>
    <flow id="vehicleflow_9" type="passenger_car_5" beg="1350" end="1475"  number="5" route="route_9"/>
    <flow id="vehicleflow_10" type="truck_0" beg="1500" end="1625"  number="5" route="route_10"/>
    <flow id="vehicleflow_11" type="truck_1" beg="1650" end="1775"  number="5" route="route_11"/>
    <flow id="vehicleflow_12" type="truck_2" beg="1800" end="1925"  number="5" route="route_12"/>
    <flow id="vehicleflow_13" type="bus_0" beg="1950" end="2075"  number="5" route="route_13"/>
    <flow id="vehicleflow_14" type="bus_1" beg="2100" end="2225"  number="5" route="route_14"/>