<?xml version="1.0" encoding="UTF-8"?>

<!-- generated on 2022-05-10 11:18:21 by Eclipse SUMO netedit Version 1.12.0
<configuration xmlns:xsi="http://www.w3.org/2001/XMLSchema-instance" xsi:noNamespaceSchemaLocation="http://sumo.dlr.de/xsd/netconvertConfiguration.xsd">

    <input>
        <sumo-net-file value="C:\Users\91987\City-Traffic-Management-System\new-network.net.xml"/>
    </input>

    <output>
        <output-file value="C:\Users\91987\City-Traffic-Management-System\new-network.net.xml"/>
    </output>

    <processing>
        <geometry.min-radius.fix.railways value="false"/>
        <geometry.max-grade.fix value="false"/>
        <offset.disable-normalization value="true"/>
        <lefthand value="false"/>
    </processing>

    <junctions>
        <no-turnarounds value="true"/>
        <junctions.corner-detail value="5"/>
        <junctions.limit-turn-speed value="5.5"/>
        <rectangular-lane-cut value="false"/>
    </junctions>

    <pedestrian>
        <walkingareas value="false"/>
    </pedestrian>

    <report>
        <aggregate-warnings value="5"/>
    </report>

</configuration>
-->

<net version="1.9" junctionCornerDetail="5" limitTurnSpeed="5.50" xmlns:xsi="http://www.w3.org/2001/XMLSchema-instance" xsi:noNamespaceSchemaLocation="http://sumo.dlr.de/xsd/net_file.xsd">

    <location netOffset="0.00,0.00" convBoundary="1132.40,-548.02,1862.62,-207.96" origBoundary="-10000000000.00,-10000000000.00,10000000000.00,10000000000.00" projParameter="!"/>

    <edge id=":J10_0" function="internal">
        <lane id=":J10_0_0" index="0" speed="7.56" length="12.54" shape="1467.33,-364.01 1466.72,-366.46 1464.90,-368.21 1461.86,-369.26 1457.60,-369.61"/>
    </edge>
    <edge id=":J10_1" function="internal">
        <lane id=":J10_1_0" index="0" speed="13.89" length="17.25" shape="1467.33,-364.01 1466.58,-367.95 1464.68,-372.03 1462.15,-375.85 1459.49,-379.04"/>
    </edge>
    <edge id=":J10_2" function="internal">
        <lane id=":J10_2_0" index="0" speed="13.89" length="19.36" shape="1467.33,-364.01 1467.33,-383.37"/>
    </edge>
    <edge id=":J10_3" function="internal">
        <lane id=":J10_3_0" index="0" speed="8.00" length="4.07" shape="1467.33,-364.01 1467.88,-367.86 1467.97,-368.01"/>
    </edge>
    <edge id=":J10_20" function="internal">
        <lane id=":J10_20_0" index="0" speed="8.00" length="10.13" shape="1467.97,-368.01 1469.53,-370.61 1472.28,-372.26 1476.13,-372.81"/>
    </edge>
    <edge id=":J10_4" function="internal">
        <lane id=":J10_4_0" index="0" speed="6.51" length="9.03" shape="1476.13,-369.61 1473.68,-369.26 1471.93,-368.21 1470.88,-366.46 1470.53,-364.01"/>
    </edge>
    <edge id=":J10_5" function="internal">
        <lane id=":J10_5_0" index="0" speed="13.89" length="18.53" shape="1476.13,-369.61 1457.60,-369.61"/>
    </edge>
    <edge id=":J10_6" function="internal">
        <lane id=":J10_6_0" index="0" speed="13.89" length="4.27" shape="1476.13,-369.61 1472.13,-370.20 1471.92,-370.29"/>
    </edge>
    <edge id=":J10_7" function="internal">
        <lane id=":J10_7_0" index="0" speed="9.03" length="3.31" shape="1476.13,-369.61 1472.90,-370.33"/>
    </edge>
    <edge id=":J10_21" function="internal">
        <lane id=":J10_21_0" index="0" speed="13.89" length="15.36" shape="1471.92,-370.29 1468.02,-371.97 1463.81,-374.92 1459.49,-379.04"/>
    </edge>
    <edge id=":J10_22" function="internal">
        <lane id=":J10_22_0" index="0" speed="9.03" length="15.06" shape="1472.90,-370.33 1472.28,-370.47 1469.53,-373.05 1467.88,-377.35 1467.33,-383.37"/>
    </edge>
    <edge id=":J10_8" function="internal">
        <lane id=":J10_8_0" index="0" speed="7.76" length="13.28" shape="1470.53,-383.37 1470.88,-378.75 1471.93,-375.45 1473.68,-373.47 1476.13,-372.81"/>
    </edge>
    <edge id=":J10_9" function="internal">
        <lane id=":J10_9_0" index="0" speed="13.89" length="19.36" shape="1470.53,-383.37 1470.53,-364.01"/>
    </edge>
    <edge id=":J10_10" function="internal">
        <lane id=":J10_10_0" index="0" speed="9.74" length="5.32" shape="1470.53,-383.37 1469.82,-378.10"/>
    </edge>
    <edge id=":J10_11" function="internal">
        <lane id=":J10_11_0" index="0" speed="7.45" length="6.23" shape="1470.53,-383.37 1469.86,-377.18"/>
    </edge>
    <edge id=":J10_23" function="internal">
        <lane id=":J10_23_0" index="0" speed="9.74" length="16.20" shape="1469.82,-378.10 1469.72,-377.35 1467.30,-373.05 1463.26,-370.47 1457.60,-369.61"/>
    </edge>
    <edge id=":J10_24" function="internal">
        <lane id=":J10_24_0" index="0" speed="7.45" length="13.60" shape="1469.86,-377.18 1469.84,-377.01 1467.77,-374.17 1464.32,-374.85 1459.49,-379.04"/>
    </edge>
    <edge id=":J10_12" function="internal">
        <lane id=":J10_12_0" index="0" speed="5.46" length="9.87" shape="1461.84,-381.22 1464.24,-379.13 1465.96,-378.79 1466.99,-380.21 1467.33,-383.37"/>
    </edge>
    <edge id=":J10_13" function="internal">
        <lane id=":J10_13_0" index="0" speed="13.07" length="17.00" shape="1461.84,-381.22 1465.65,-377.54 1469.31,-374.91 1472.80,-373.34 1476.13,-372.81"/>
    </edge>
    <edge id=":J10_14" function="internal">
        <lane id=":J10_14_0" index="0" speed="13.89" length="19.55" shape="1461.84,-381.22 1464.63,-377.69 1467.46,-373.11 1469.65,-368.29 1470.53,-364.01"/>
    </edge>
    <edge id=":J10_15" function="internal">
        <lane id=":J10_15_0" index="0" speed="7.50" length="19.37" shape="1461.84,-381.22 1465.61,-376.14 1466.16,-372.51 1463.49,-370.34 1457.60,-369.61"/>
    </edge>
    <edge id=":J10_16" function="internal">
        <lane id=":J10_16_0" index="0" speed="5.62" length="10.17" shape="1457.60,-372.81 1460.59,-373.20 1461.91,-374.37 1461.54,-376.32 1459.49,-379.04"/>
    </edge>
    <edge id=":J10_17" function="internal">
        <lane id=":J10_17_0" index="0" speed="8.55" length="16.37" shape="1457.60,-372.81 1461.86,-373.47 1464.90,-375.45 1466.72,-378.75 1467.33,-383.37"/>
    </edge>
    <edge id=":J10_18" function="internal">
        <lane id=":J10_18_0" index="0" speed="13.89" length="18.53" shape="1457.60,-372.81 1476.13,-372.81"/>
    </edge>
    <edge id=":J10_19" function="internal">
        <lane id=":J10_19_0" index="0" speed="8.63" length="5.99" shape="1457.60,-372.81 1461.82,-372.05 1463.36,-371.32"/>
    </edge>
    <edge id=":J10_25" function="internal">
        <lane id=":J10_25_0" index="0" speed="8.63" length="10.70" shape="1463.36,-371.32 1466.02,-370.06 1469.24,-367.24 1470.53,-364.01"/>
    </edge>
    <edge id=":J11_0" function="internal">
        <lane id=":J11_0_0" index="0" speed="6.51" length="9.03" shape="1467.33,-540.82 1466.98,-543.27 1465.93,-545.02 1464.18,-546.07 1461.73,-546.42"/>
    </edge>
    <edge id=":J11_1" function="internal">
        <lane id=":J11_1_0" index="0" speed="8.00" length="14.19" shape="1467.33,-540.82 1467.88,-544.67 1469.53,-547.42 1472.28,-549.07 1476.13,-549.62"/>
    </edge>
    <edge id=":J11_2" function="internal">
        <lane id=":J11_2_0" index="0" speed="6.51" length="9.03" shape="1476.13,-546.42 1473.68,-546.07 1471.93,-545.02 1470.88,-543.27 1470.53,-540.82"/>
    </edge>
    <edge id=":J11_3" function="internal">
        <lane id=":J11_3_0" index="0" speed="13.89" length="14.40" shape="1476.13,-546.42 1461.73,-546.42"/>
    </edge>
    <edge id=":J11_4" function="internal">
        <lane id=":J11_4_0" index="0" speed="13.89" length="14.40" shape="1461.73,-549.62 1476.13,-549.62"/>
    </edge>
    <edge id=":J11_5" function="internal">
        <lane id=":J11_5_0" index="0" speed="8.00" length="4.07" shape="1461.73,-549.62 1465.58,-549.07 1465.73,-548.98"/>
    </edge>
    <edge id=":J11_6" function="internal">
        <lane id=":J11_6_0" index="0" speed="8.00" length="10.13" shape="1465.73,-548.98 1468.33,-547.42 1469.98,-544.67 1470.53,-540.82"/>
    </edge>
    <edge id=":J12_0" function="internal">
        <lane id=":J12_0_0" index="0" speed="13.89" length="20.31" shape="1671.22,-206.36 1650.91,-206.36"/>
    </edge>
    <edge id=":J12_1" function="internal">
        <lane id=":J12_1_0" index="0" speed="9.80" length="21.79" shape="1671.22,-206.36 1664.79,-207.13 1660.19,-209.43 1657.43,-213.26 1656.51,-218.62"/>
    </edge>
    <edge id=":J12_2" function="internal">
        <lane id=":J12_2_0" index="0" speed="7.53" length="20.99" shape="1671.22,-206.36 1664.35,-207.05 1661.42,-209.12 1662.41,-212.57 1667.34,-217.41"/>
    </edge>
    <edge id=":J12_3" function="internal">
        <lane id=":J12_3_0" index="0" speed="5.46" length="10.17" shape="1669.34,-214.91 1666.96,-212.57 1666.47,-210.90 1667.90,-209.89 1671.22,-209.56"/>
    </edge>
    <edge id=":J12_4" function="internal">
        <lane id=":J12_4_0" index="0" speed="13.89" length="20.53" shape="1669.34,-214.91 1665.52,-212.25 1660.54,-209.46 1655.35,-207.26 1650.91,-206.36"/>
    </edge>
    <edge id=":J12_5" function="internal">
        <lane id=":J12_5_0" index="0" speed="7.68" length="19.71" shape="1669.34,-214.91 1663.73,-211.29 1659.72,-210.70 1657.31,-213.14 1656.51,-218.62"/>
    </edge>
    <edge id=":J12_6" function="internal">
        <lane id=":J12_6_0" index="0" speed="5.94" length="11.15" shape="1659.71,-218.62 1660.19,-215.80 1661.62,-214.65 1664.00,-215.19 1667.34,-217.41"/>
    </edge>
    <edge id=":J12_7" function="internal">
        <lane id=":J12_7_0" index="0" speed="8.62" length="16.64" shape="1659.71,-218.62 1660.43,-214.66 1662.59,-211.83 1666.19,-210.13 1671.22,-209.56"/>
    </edge>
    <edge id=":J12_8" function="internal">
        <lane id=":J12_8_0" index="0" speed="8.73" length="17.08" shape="1659.71,-218.62 1659.16,-213.26 1657.51,-209.43 1654.76,-207.13 1650.91,-206.36"/>
    </edge>
    <edge id=":J12_9" function="internal">
        <lane id=":J12_9_0" index="0" speed="7.39" length="11.96" shape="1650.91,-209.56 1653.36,-210.13 1655.11,-211.83 1656.16,-214.66 1656.51,-218.62"/>
    </edge>
    <edge id=":J12_10" function="internal">
        <lane id=":J12_10_0" index="0" speed="13.89" length="18.44" shape="1650.91,-209.56 1655.04,-210.35 1659.54,-212.31 1663.83,-214.86 1667.34,-217.41"/>
    </edge>
    <edge id=":J12_11" function="internal">
        <lane id=":J12_11_0" index="0" speed="13.89" length="20.31" shape="1650.91,-209.56 1671.22,-209.56"/>
    </edge>
    <edge id=":J13_0" function="internal">
        <lane id=":J13_0_0" index="0" speed="6.51" length="9.03" shape="1656.51,-364.01 1656.16,-366.46 1655.11,-368.21 1653.36,-369.26 1650.91,-369.61"/>
    </edge>
    <edge id=":J13_1" function="internal">
        <lane id=":J13_1_0" index="0" speed="13.89" length="14.41" shape="1656.51,-364.01 1656.51,-378.42"/>
    </edge>
    <edge id=":J13_2" function="internal">
        <lane id=":J13_2_0" index="0" speed="8.01" length="4.07" shape="1656.51,-364.01 1657.06,-367.86 1657.15,-368.01"/>
    </edge>
    <edge id=":J13_12" function="internal">
        <lane id=":J13_12_0" index="0" speed="8.01" length="10.14" shape="1657.15,-368.01 1658.71,-370.61 1661.46,-372.27 1665.31,-372.83"/>
    </edge>
    <edge id=":J13_3" function="internal">
        <lane id=":J13_3_0" index="0" speed="6.52" length="9.05" shape="1665.32,-369.63 1662.87,-369.27 1661.11,-368.22 1660.06,-366.46 1659.71,-364.01"/>
    </edge>
    <edge id=":J13_4" function="internal">
        <lane id=":J13_4_0" index="0" speed="13.89" length="14.41" shape="1665.32,-369.63 1650.91,-369.61"/>
    </edge>
    <edge id=":J13_5" function="internal">
        <lane id=":J13_5_0" index="0" speed="8.00" length="4.08" shape="1665.32,-369.63 1661.47,-370.17 1661.31,-370.27"/>
    </edge>
    <edge id=":J13_13" function="internal">
        <lane id=":J13_13_0" index="0" speed="8.00" length="10.12" shape="1661.31,-370.27 1658.71,-371.82 1657.06,-374.56 1656.51,-378.42"/>
    </edge>
    <edge id=":J13_6" function="internal">
        <lane id=":J13_6_0" index="0" speed="6.50" length="9.03" shape="1659.71,-378.42 1660.06,-375.97 1661.11,-374.22 1662.86,-373.17 1665.31,-372.83"/>
    </edge>
    <edge id=":J13_7" function="internal">
        <lane id=":J13_7_0" index="0" speed="13.89" length="14.41" shape="1659.71,-378.42 1659.71,-364.01"/>
    </edge>
    <edge id=":J13_8" function="internal">
        <lane id=":J13_8_0" index="0" speed="8.00" length="4.07" shape="1659.71,-378.42 1659.16,-374.57 1659.07,-374.41"/>
    </edge>
    <edge id=":J13_14" function="internal">
        <lane id=":J13_14_0" index="0" speed="8.00" length="10.13" shape="1659.07,-374.41 1657.51,-371.81 1654.76,-370.16 1650.91,-369.61"/>
    </edge>
    <edge id=":J13_9" function="internal">
        <lane id=":J13_9_0" index="0" speed="6.51" length="9.04" shape="1650.91,-372.81 1653.36,-373.16 1655.11,-374.21 1656.16,-375.97 1656.51,-378.42"/>
    </edge>
    <edge id=":J13_10" function="internal">
        <lane id=":J13_10_0" index="0" speed="13.89" length="14.40" shape="1650.91,-372.81 1665.31,-372.83"/>
    </edge>
    <edge id=":J13_11" function="internal">
        <lane id=":J13_11_0" index="0" speed="8.00" length="4.06" shape="1650.91,-372.81 1654.76,-372.26 1654.90,-372.17"/>
    </edge>
    <edge id=":J13_15" function="internal">
        <lane id=":J13_15_0" index="0" speed="8.00" length="10.14" shape="1654.90,-372.17 1657.51,-370.61 1659.16,-367.86 1659.71,-364.01"/>
    </edge>
    <edge id=":J14_0" function="internal">
        <lane id=":J14_0_0" index="0" speed="6.51" length="9.03" shape="1656.51,-540.82 1656.16,-543.27 1655.11,-545.02 1653.36,-546.07 1650.91,-546.42"/>
    </edge>
    <edge id=":J14_1" function="internal">
        <lane id=":J14_1_0" index="0" speed="8.00" length="14.19" shape="1656.51,-540.82 1657.06,-544.67 1658.71,-547.42 1661.46,-549.07 1665.31,-549.62"/>
    </edge>
    <edge id=":J14_2" function="internal">
        <lane id=":J14_2_0" index="0" speed="6.51" length="9.03" shape="1665.31,-546.42 1662.86,-546.07 1661.11,-545.02 1660.06,-543.27 1659.71,-540.82"/>
    </edge>
    <edge id=":J14_3" function="internal">
        <lane id=":J14_3_0" index="0" speed="13.89" length="14.40" shape="1665.31,-546.42 1650.91,-546.42"/>
    </edge>
    <edge id=":J14_4" function="internal">
        <lane id=":J14_4_0" index="0" speed="13.89" length="14.40" shape="1650.91,-549.62 1665.31,-549.62"/>
    </edge>
    <edge id=":J14_5" function="internal">
        <lane id=":J14_5_0" index="0" speed="8.00" length="4.07" shape="1650.91,-549.62 1654.76,-549.07 1654.91,-548.98"/>
    </edge>
    <edge id=":J14_6" function="internal">
        <lane id=":J14_6_0" index="0" speed="8.00" length="10.13" shape="1654.91,-548.98 1657.51,-547.42 1659.16,-544.67 1659.71,-540.82"/>
    </edge>
    <edge id=":J15_0" function="internal">
        <lane id=":J15_0_0" index="0" speed="6.08" length="7.74" shape="1864.22,-211.16 1863.92,-209.06 1863.02,-207.56 1861.52,-206.66 1859.42,-206.36"/>
    </edge>
    <edge id=":J15_1" function="internal">
        <lane id=":J15_1_0" index="0" speed="3.90" length="2.58" shape="1859.42,-209.56 1860.12,-209.66 1860.62,-209.96 1860.92,-210.46 1861.02,-211.16"/>
    </edge>
    <edge id=":J16_0" function="internal">
        <lane id=":J16_0_0" index="0" speed="5.95" length="11.18" shape="1861.02,-361.14 1860.54,-363.96 1859.10,-365.10 1856.71,-364.56 1853.35,-362.33"/>
    </edge>
    <edge id=":J16_1" function="internal">
        <lane id=":J16_1_0" index="0" speed="8.62" length="16.65" shape="1861.02,-361.14 1860.30,-365.10 1858.13,-367.92 1854.52,-369.61 1849.47,-370.16"/>
    </edge>
    <edge id=":J16_2" function="internal">
        <lane id=":J16_2_0" index="0" speed="13.89" length="17.85" shape="1861.02,-361.14 1861.02,-378.99"/>
    </edge>
    <edge id=":J16_3" function="internal">
        <lane id=":J16_3_0" index="0" speed="13.89" length="17.85" shape="1864.22,-378.99 1864.22,-361.14"/>
    </edge>
    <edge id=":J16_4" function="internal">
        <lane id=":J16_4_0" index="0" speed="13.51" length="20.50" shape="1864.22,-378.99 1863.54,-374.96 1861.50,-370.85 1858.11,-366.63 1853.35,-362.33"/>
    </edge>
    <edge id=":J16_5" function="internal">
        <lane id=":J16_5_0" index="0" speed="9.24" length="19.24" shape="1864.22,-378.99 1863.30,-375.14 1860.53,-372.39 1855.92,-370.73 1849.47,-370.16"/>
    </edge>
    <edge id=":J16_6" function="internal">
        <lane id=":J16_6_0" index="0" speed="8.01" length="14.18" shape="1849.46,-373.36 1854.52,-373.73 1858.13,-374.79 1860.30,-376.54 1861.02,-378.99"/>
    </edge>
    <edge id=":J16_7" function="internal">
        <lane id=":J16_7_0" index="0" speed="9.79" length="21.81" shape="1849.46,-373.36 1855.92,-372.61 1860.53,-370.33 1863.30,-366.50 1864.22,-361.14"/>
    </edge>
    <edge id=":J16_8" function="internal">
        <lane id=":J16_8_0" index="0" speed="7.54" length="21.04" shape="1849.46,-373.36 1856.35,-372.69 1859.30,-370.63 1858.30,-367.17 1853.35,-362.33"/>
    </edge>
    <edge id=":J16_9" function="internal">
        <lane id=":J16_9_0" index="0" speed="5.46" length="10.18" shape="1851.35,-364.82 1853.75,-367.17 1854.23,-368.84 1852.80,-369.84 1849.47,-370.16"/>
    </edge>
    <edge id=":J16_10" function="internal">
        <lane id=":J16_10_0" index="0" speed="12.55" length="17.65" shape="1851.35,-364.82 1855.58,-368.61 1858.60,-372.24 1860.42,-375.70 1861.02,-378.99"/>
    </edge>
    <edge id=":J16_11" function="internal">
        <lane id=":J16_11_0" index="0" speed="7.69" length="19.74" shape="1851.35,-364.82 1856.98,-368.46 1861.00,-369.06 1863.42,-366.62 1864.22,-361.14"/>
    </edge>
    <edge id=":J17_0" function="internal">
        <lane id=":J17_0_0" index="0" speed="3.90" length="2.58" shape="1861.02,-544.82 1860.92,-545.52 1860.62,-546.02 1860.12,-546.32 1859.42,-546.42"/>
    </edge>
    <edge id=":J17_1" function="internal">
        <lane id=":J17_1_0" index="0" speed="6.08" length="7.74" shape="1859.42,-549.62 1861.52,-549.32 1863.02,-548.42 1863.92,-546.92 1864.22,-544.82"/>
    </edge>
    <edge id=":J3_0" function="internal">
        <lane id=":J3_0_0" index="0" speed="6.08" length="7.74" shape="1135.60,-206.36 1133.50,-206.66 1132.00,-207.56 1131.10,-209.06 1130.80,-211.16"/>
    </edge>
    <edge id=":J3_1" function="internal">
        <lane id=":J3_1_0" index="0" speed="3.90" length="2.58" shape="1134.00,-211.16 1134.10,-210.46 1134.40,-209.96 1134.90,-209.66 1135.60,-209.56"/>
    </edge>
    <edge id=":J4_0" function="internal">
        <lane id=":J4_0_0" index="0" speed="13.89" length="14.40" shape="1130.80,-364.59 1130.80,-378.99"/>
    </edge>
    <edge id=":J4_1" function="internal">
        <lane id=":J4_1_0" index="0" speed="8.00" length="4.07" shape="1130.80,-364.59 1131.35,-368.44 1131.44,-368.59"/>
    </edge>
    <edge id=":J4_6" function="internal">
        <lane id=":J4_6_0" index="0" speed="8.00" length="10.14" shape="1131.44,-368.59 1133.00,-371.19 1135.76,-372.84 1139.62,-373.38"/>
    </edge>
    <edge id=":J4_2" function="internal">
        <lane id=":J4_2_0" index="0" speed="6.50" length="9.03" shape="1139.61,-370.18 1137.15,-369.83 1135.40,-368.79 1134.35,-367.04 1134.00,-364.59"/>
    </edge>
    <edge id=":J4_3" function="internal">
        <lane id=":J4_3_0" index="0" speed="8.01" length="14.20" shape="1139.61,-370.18 1135.75,-370.74 1133.00,-372.39 1131.35,-375.14 1130.80,-378.99"/>
    </edge>
    <edge id=":J4_4" function="internal">
        <lane id=":J4_4_0" index="0" speed="6.52" length="9.05" shape="1134.00,-378.99 1134.35,-376.54 1135.40,-374.79 1137.16,-373.73 1139.62,-373.38"/>
    </edge>
    <edge id=":J4_5" function="internal">
        <lane id=":J4_5_0" index="0" speed="13.89" length="14.40" shape="1134.00,-378.99 1134.00,-364.59"/>
    </edge>
    <edge id=":J5_0" function="internal">
        <lane id=":J5_0_0" index="0" speed="6.08" length="7.72" shape="1130.80,-544.24 1131.10,-546.33 1132.00,-547.83 1133.49,-548.73 1135.58,-549.04"/>
    </edge>
    <edge id=":J5_1" function="internal">
        <lane id=":J5_1_0" index="0" speed="3.90" length="2.57" shape="1135.59,-545.84 1134.90,-545.74 1134.40,-545.44 1134.10,-544.94 1134.00,-544.24"/>
    </edge>
    <edge id=":J6_0" function="internal">
        <lane id=":J6_0_0" index="0" speed="13.89" length="14.40" shape="1312.29,-206.36 1297.89,-206.36"/>
    </edge>
    <edge id=":J6_1" function="internal">
        <lane id=":J6_1_0" index="0" speed="8.00" length="4.07" shape="1312.29,-206.36 1308.44,-206.91 1308.29,-207.00"/>
    </edge>
    <edge id=":J6_6" function="internal">
        <lane id=":J6_6_0" index="0" speed="8.00" length="10.13" shape="1308.29,-207.00 1305.69,-208.56 1304.04,-211.31 1303.49,-215.16"/>
    </edge>
    <edge id=":J6_2" function="internal">
        <lane id=":J6_2_0" index="0" speed="6.51" length="9.03" shape="1306.69,-215.16 1307.04,-212.71 1308.09,-210.96 1309.84,-209.91 1312.29,-209.56"/>
    </edge>
    <edge id=":J6_3" function="internal">
        <lane id=":J6_3_0" index="0" speed="8.00" length="14.19" shape="1306.69,-215.16 1306.14,-211.31 1304.49,-208.56 1301.74,-206.91 1297.89,-206.36"/>
    </edge>
    <edge id=":J6_4" function="internal">
        <lane id=":J6_4_0" index="0" speed="6.51" length="9.03" shape="1297.89,-209.56 1300.34,-209.91 1302.09,-210.96 1303.14,-212.71 1303.49,-215.16"/>
    </edge>
    <edge id=":J6_5" function="internal">
        <lane id=":J6_5_0" index="0" speed="13.89" length="14.40" shape="1297.89,-209.56 1312.29,-209.56"/>
    </edge>
    <edge id=":J7_0" function="internal">
        <lane id=":J7_0_0" index="0" speed="6.52" length="9.06" shape="1303.49,-364.01 1303.14,-366.46 1302.09,-368.22 1300.33,-369.28 1297.87,-369.63"/>
    </edge>
    <edge id=":J7_1" function="internal">
        <lane id=":J7_1_0" index="0" speed="13.89" length="14.41" shape="1303.49,-364.01 1303.49,-378.42"/>
    </edge>
    <edge id=":J7_2" function="internal">
        <lane id=":J7_2_0" index="0" speed="8.00" length="4.07" shape="1303.49,-364.01 1304.04,-367.86 1304.13,-368.01"/>
    </edge>
    <edge id=":J7_12" function="internal">
        <lane id=":J7_12_0" index="0" speed="8.00" length="10.13" shape="1304.13,-368.01 1305.69,-370.61 1308.44,-372.26 1312.29,-372.81"/>
    </edge>
    <edge id=":J7_3" function="internal">
        <lane id=":J7_3_0" index="0" speed="6.51" length="9.03" shape="1312.29,-369.61 1309.84,-369.26 1308.09,-368.21 1307.04,-366.46 1306.69,-364.01"/>
    </edge>
    <edge id=":J7_4" function="internal">
        <lane id=":J7_4_0" index="0" speed="13.89" length="14.42" shape="1312.29,-369.61 1297.87,-369.63"/>
    </edge>
    <edge id=":J7_5" function="internal">
        <lane id=":J7_5_0" index="0" speed="8.00" length="4.08" shape="1312.29,-369.61 1308.44,-370.16 1308.28,-370.26"/>
    </edge>
    <edge id=":J7_13" function="internal">
        <lane id=":J7_13_0" index="0" speed="8.00" length="10.12" shape="1308.28,-370.26 1305.69,-371.81 1304.04,-374.57 1303.49,-378.42"/>
    </edge>
    <edge id=":J7_6" function="internal">
        <lane id=":J7_6_0" index="0" speed="6.51" length="9.04" shape="1306.69,-378.42 1307.04,-375.97 1308.09,-374.21 1309.84,-373.16 1312.29,-372.81"/>
    </edge>
    <edge id=":J7_7" function="internal">
        <lane id=":J7_7_0" index="0" speed="13.89" length="14.41" shape="1306.69,-378.42 1306.69,-364.01"/>
    </edge>
    <edge id=":J7_8" function="internal">
        <lane id=":J7_8_0" index="0" speed="8.00" length="4.07" shape="1306.69,-378.42 1306.14,-374.57 1306.05,-374.42"/>
    </edge>
    <edge id=":J7_14" function="internal">
        <lane id=":J7_14_0" index="0" speed="8.00" length="10.14" shape="1306.05,-374.42 1304.49,-371.82 1301.73,-370.17 1297.87,-369.63"/>
    </edge>
    <edge id=":J7_9" function="internal">
        <lane id=":J7_9_0" index="0" speed="6.50" length="9.03" shape="1297.88,-372.83 1300.34,-373.18 1302.09,-374.22 1303.14,-375.97 1303.49,-378.42"/>
    </edge>
    <edge id=":J7_10" function="internal">
        <lane id=":J7_10_0" index="0" speed="13.89" length="14.41" shape="1297.88,-372.83 1312.29,-372.81"/>
    </edge>
    <edge id=":J7_11" function="internal">
        <lane id=":J7_11_0" index="0" speed="8.02" length="4.06" shape="1297.88,-372.83 1301.74,-372.27 1301.88,-372.19"/>
    </edge>
    <edge id=":J7_15" function="internal">
        <lane id=":J7_15_0" index="0" speed="8.02" length="10.15" shape="1301.88,-372.19 1304.49,-370.61 1306.14,-367.86 1306.69,-364.01"/>
    </edge>
    <edge id=":J8_0" function="internal">
        <lane id=":J8_0_0" index="0" speed="7.75" length="13.26" shape="1303.49,-535.86 1303.14,-540.48 1302.09,-543.77 1300.34,-545.74 1297.88,-546.40"/>
    </edge>
    <edge id=":J8_1" function="internal">
        <lane id=":J8_1_0" index="0" speed="9.74" length="21.53" shape="1303.49,-535.86 1304.30,-541.88 1306.72,-546.18 1310.76,-548.76 1316.42,-549.62"/>
    </edge>
    <edge id=":J8_2" function="internal">
        <lane id=":J8_2_0" index="0" speed="7.45" length="19.83" shape="1303.49,-535.86 1304.18,-542.22 1306.25,-545.06 1309.70,-544.38 1314.53,-540.19"/>
    </edge>
    <edge id=":J8_3" function="internal">
        <lane id=":J8_3_0" index="0" speed="5.46" length="9.87" shape="1312.18,-538.01 1309.78,-540.10 1308.06,-540.44 1307.03,-539.02 1306.69,-535.86"/>
    </edge>
    <edge id=":J8_4" function="internal">
        <lane id=":J8_4_0" index="0" speed="13.03" length="17.00" shape="1312.18,-538.01 1308.37,-541.69 1304.71,-544.31 1301.22,-545.88 1297.88,-546.40"/>
    </edge>
    <edge id=":J8_5" function="internal">
        <lane id=":J8_5_0" index="0" speed="7.50" length="19.37" shape="1312.18,-538.01 1308.41,-543.09 1307.86,-546.72 1310.53,-548.89 1316.42,-549.62"/>
    </edge>
    <edge id=":J8_6" function="internal">
        <lane id=":J8_6_0" index="0" speed="5.62" length="10.17" shape="1316.42,-546.42 1313.43,-546.03 1312.11,-544.86 1312.48,-542.91 1314.53,-540.19"/>
    </edge>
    <edge id=":J8_7" function="internal">
        <lane id=":J8_7_0" index="0" speed="8.55" length="16.37" shape="1316.42,-546.42 1312.16,-545.76 1309.12,-543.78 1307.30,-540.48 1306.69,-535.86"/>
    </edge>
    <edge id=":J8_8" function="internal">
        <lane id=":J8_8_0" index="0" speed="13.89" length="18.53" shape="1316.42,-546.42 1297.88,-546.40"/>
    </edge>
    <edge id=":J8_9" function="internal">
        <lane id=":J8_9_0" index="0" speed="13.89" length="18.54" shape="1297.87,-549.60 1316.42,-549.62"/>
    </edge>
    <edge id=":J8_10" function="internal">
        <lane id=":J8_10_0" index="0" speed="13.89" length="19.64" shape="1297.87,-549.60 1301.88,-549.02 1305.99,-547.26 1310.21,-544.31 1314.53,-540.19"/>
    </edge>
    <edge id=":J8_11" function="internal">
        <lane id=":J8_11_0" index="0" speed="9.02" length="18.37" shape="1297.87,-549.60 1301.73,-548.75 1304.49,-546.18 1306.14,-541.88 1306.69,-535.86"/>
    </edge>
    <edge id=":J9_0" function="internal">
        <lane id=":J9_0_0" index="0" speed="13.89" length="14.40" shape="1476.13,-206.36 1461.73,-206.36"/>
    </edge>
    <edge id=":J9_1" function="internal">
        <lane id=":J9_1_0" index="0" speed="8.00" length="4.07" shape="1476.13,-206.36 1472.28,-206.91 1472.13,-207.00"/>
    </edge>
    <edge id=":J9_6" function="internal">
        <lane id=":J9_6_0" index="0" speed="8.00" length="10.13" shape="1472.13,-207.00 1469.53,-208.56 1467.88,-211.31 1467.33,-215.16"/>
    </edge>
    <edge id=":J9_2" function="internal">
        <lane id=":J9_2_0" index="0" speed="6.51" length="9.03" shape="1470.53,-215.16 1470.88,-212.71 1471.93,-210.96 1473.68,-209.91 1476.13,-209.56"/>
    </edge>
    <edge id=":J9_3" function="internal">
        <lane id=":J9_3_0" index="0" speed="8.00" length="14.19" shape="1470.53,-215.16 1469.98,-211.31 1468.33,-208.56 1465.58,-206.91 1461.73,-206.36"/>
    </edge>
    <edge id=":J9_4" function="internal">
        <lane id=":J9_4_0" index="0" speed="6.51" length="9.03" shape="1461.73,-209.56 1464.18,-209.91 1465.93,-210.96 1466.98,-212.71 1467.33,-215.16"/>
    </edge>
    <edge id=":J9_5" function="internal">
        <lane id=":J9_5_0" index="0" speed="13.89" length="14.40" shape="1461.73,-209.56 1476.13,-209.56"/>
    </edge>

    <edge id="-E1" from="J4" to="J3" priority="-1">
        <lane id="-E1_0" index="0" speed="13.89" length="153.43" shape="1134.00,-364.59 1134.00,-211.16"/>
    </edge>
    <edge id="-E10" from="J7" to="J10" priority="-1">
        <lane id="-E10_0" index="0" speed="13.89" length="145.31" shape="1312.29,-372.81 1457.60,-372.81"/>
    </edge>
    <edge id="-E11" from="J11" to="J10" priority="-1">
        <lane id="-E11_0" index="0" speed="13.89" length="157.45" shape="1470.53,-540.82 1470.53,-383.37"/>
    </edge>
    <edge id="-E12" from="J11" to="J8" priority="-1">
        <lane id="-E12_0" index="0" speed="13.89" length="145.31" shape="1461.73,-546.42 1316.42,-546.42"/>
    </edge>
    <edge id="-E13" from="J12" to="J9" priority="-1">
        <lane id="-E13_0" index="0" speed="13.89" length="174.78" shape="1650.91,-206.36 1476.13,-206.36"/>
    </edge>
    <edge id="-E14" from="J13" to="J12" priority="-1">
        <lane id="-E14_0" index="0" speed="13.89" length="145.39" shape="1659.71,-364.01 1659.71,-218.62"/>
    </edge>
    <edge id="-E15" from="J10" to="J13" priority="-1">
        <lane id="-E15_0" index="0" speed="13.89" length="174.78" shape="1476.13,-372.81 1650.91,-372.81"/>
    </edge>
    <edge id="-E16" from="J14" to="J13" priority="-1">
        <lane id="-E16_0" index="0" speed="13.89" length="162.40" shape="1659.71,-540.82 1659.71,-378.42"/>
    </edge>
    <edge id="-E17" from="J14" to="J11" priority="-1">
        <lane id="-E17_0" index="0" speed="13.89" length="174.78" shape="1650.91,-546.42 1476.13,-546.42"/>
    </edge>
    <edge id="-E18" from="J15" to="J12" priority="-1">
        <lane id="-E18_0" index="0" speed="13.89" length="188.20" shape="1859.42,-206.36 1671.22,-206.36"/>
    </edge>
    <edge id="-E19" from="J16" to="J15" priority="-1">