<routes>

    <vType id="type1"
           vClass="bicycle" length="1.6" width="6.5" height="1.7" accel="1.2" decel="3" emergencyDecel="7" sigma="1.0" maxSpeed="20"
           guiShape="bicycle" speedFactor="2.0" speedDeviation="0.1" minGap="0.5"/>


    <vType id="type2"
           vClass="moped" length="2.1" width="0.8" height="1.7" accel="1.1" decel="7" emergencyDecel="10" sigma="1.0" maxSpeed="45"
           guiShape="moped" speedFactor="2.0" speedDeviation="0.1" minGap="2.5"/>


    <vType id="type3"
           vClass="motorcycle" length="2.2" width="0.9" height="1.5" accel="6" decel="10" emergencyDecel="10" sigma="1.0" maxSpeed="200"
           guiShape="motorcycle" speedFactor="2.0" speedDeviation="0.1" minGap="2.5"/>


    <vType id="type4"
           vClass="passenger" length="5" width="1.8" height="1.5" accel="2.6" decel="4.5"  emergencyDecel="9" sigma="1.0" maxSpeed="200"
           guiShape="passenger" speedFactor="2.0" speedDeviation="0.1" minGap="2.5"/>


    <!--<vType id="type5"
           vClass="passenger" length="5" width="1.8" height="1.5" accel="2.6" decel="4.5" emergencyDecel="9" sigma="1.0" maxSpeed="200"
           guiShape="sedan" speedFactor="2.0" speedDeviation="0.1" minGap="2.5"/>


    <vType id="type6"
           vClass="passenger" length="5" width="1.8" height="1.5" accel="2.6" decel="4.5"  emergencyDecel="9" sigma="1.0" maxSpeed="200"
           guiShape="hatchback" speedFactor="2.0" speedDeviation="0.1" minGap="2.5"/>


    <vType id="type7"
           vClass="passenger" length="5" width="1.8" height="1.5" accel="2.6" decel="4.5" emergencyDecel="9" sigma="1.0" maxSpeed="200"
           guiShape="wagon" speedFactor="2.0" speedDeviation="0.1" minGap="2.5"/>


    <vType id="type8"
           vClass="passenger" length="4.7" width="1.9" height="1.73" accel="2.6" decel="4.5"  emergencyDecel="9" sigma="1.0" maxSpeed="200"
           guiShape="van" speedFactor="2.0" speedDeviation="0.1" minGap="2.5"/>


    <vType id="type9"
           vClass="taxi" length="5"  width="1.8" height="1.5" accel="2.6" decel="4.5" emergencyDecel="9" sigma="1.0" maxSpeed="200"
           guiShape="passenger" speedFactor="2.0" speedDeviation="0.05" minGap="2.5"/>


    <vType id="type10"
           vClass="emergency" length="6.5" width="2.16" height="2.86" accel="2.6" decel="4.5" emergencyDecel="9" sigma="1.0" maxSpeed="200"
           guiShape="delivery" speedFactor="4.0" speedDeviation="0" minGap="2.5"/>


    <vType id="type11"
           vClass="delivery" length="6.5" width="2.16" height="2.86" accel="2.6" decel="4.5" emergencyDecel="9" sigma="1.0" maxSpeed="200"
           guiShape="delivery" speedFactor="2.0" speedDeviation="0.05" minGap="2.5"/>


    <vType id="type12"
           vClass="truck" length="7.1" width="2.4" height="2.4" accel="1.3" decel="4" emergencyDecel="7" sigma="1.0" maxSpeed="130"
           guiShape="truck" speedFactor="2.0" speedDeviation="0.05" minGap="2.5"/>


    <vType id="type13"
           vClass="trailer" length="16.5" width="2.55" height="4" accel="1.1" decel="4" emergencyDecel="7" sigma="1.0" maxSpeed="130"
           guiShape="semitrailer" speedFactor="2.0" speedDeviation="0.05" minGap="2.5"/>


    <vType id="type14"
           vClass="trailer" length="18.75" width="2.55" height="4" accel="1" decel="4" emergencyDecel="7" sigma="1.0" maxSpeed="130"
           guiShape="trailer" speedFactor="2.0" speedDeviation="0.05" minGap="2.5"/>


    <vType id="type15"
           vClass="bus" length="12" width="2.5" height="3.4" accel="1.2" decel="4" emergencyDecel="7" sigma="1.0" maxSpeed="85"
           guiShape="bus" speedFactor="2.0" speedDeviation="0" minGap="2.5"/>


    <vType id="type16"
           vClass="bus" length="17.9" width="2.5" height="3.0" accel="1.2" decel="4" emergencyDecel="7" sigma="1.0" maxSpeed="85"
           guiShape="flexible" speedFactor="2.0" speedDeviation="0" minGap="2.5"/>


    <vType id="type17"
           vClass="coach" length="14" width="2.6" height="4" accel="2.0" decel="4" emergencyDecel="7" sigma="1.0" maxSpeed="100"
           guiShape="coach" speedFactor="2.0" speedDeviation="0.05" minGap="2.5"/>


    <vType id="type18"
           vClass="evehicle" length="5" width="1.8" height="1.5" accel="2.6" decel="4.5" emergencyDecel="9" sigma="1.0" maxSpeed="200"
           guiShape="evehicle" speedFactor="2.0" speedDeviation="0.1" minGap="2.5"/>


    <vType id="type19"
           vClass="e-scooter" length="1.1" width="0.4" height="1.2" accel="2" decel="4" emergencyDecel="7" sigma="1.0" maxSpeed="20"
           guiShape="e-scooter" speedFactor="2.0" speedDeviation="0.1" minGap="1.5"/>-->


    <route id="route_0" edges="E1 E2 E3 E4 E5 E6 E7 E8 E9 E10 E11 E12 E13 E14 E15 E16 E17 E18 E19 E20 E21 E22 E23 E24"/>
    <flow id="type1flow" type="type1" beg="0" end="0" number="5" from="E1" to="E24"/>
    <!--<flow id="passengercarflow" type="passenger car" beg="0" end="0" number="5" from="e1" to="e24"/>
    <flow id="truckflow" type="truck" beg="0" end="0" number="5" from="e1" to="e24"/>
    <flow id="busflow" type="bus" beg="0" end="0" number="5" from="e1" to="e24"/>
    <flow id="electricvehicleflow" type="electric vehicle" beg="0" end="0" number="5" from="e1" to="e24"/>-->


    <!--<vehicle id="0" type="car" route="route_0" depart="0" />-->

</routes>
