<routes>

    <vType id="two-wheeled vehicle"
           vClass="bicycle" length="1.6" width="0.65" height="1.7" accel="1.2" decel="3" emergencyDecel="7" sigma="1.0" maxSpeed="20"
           guiShape="bicycle" speedFactor="2.0" speedDeviation="0.1" minGap="0.5"/>


    <vType id="two-wheeled vehicle"
           vClass="moped" length="2.1" width="0.8" height="1.7" accel="1.1" decel="7" emergencyDecel="10" sigma="1.0" maxSpeed="45"
           guiShape="moped" speedFactor="2.0" speedDeviation="0.1" minGap="2.5"/>


    <vType id="two-wheeled vehicle"
           vClass="motorcycle" length="2.2" width="0.9" height="1.5" accel="6" decel="10" emergencyDecel="10" sigma="1.0" maxSpeed="200"
           guiShape="motorcycle" speedFactor="2.0" speedDeviation="0.1" minGap="2.5"/>


    <vType id="passenger car"
           vClass="passenger" length="5" width="1.8" height="1.5" accel="2.6" decel="4.5"  emergencyDecel="9" sigma="1.0" maxSpeed="200"
           guiShape="passenger" speedFactor="2.0" speedDeviation="0.1" minGap="2.5"/>


    <vType id="passenger car"
           vClass="passenger" length="5" width="1.8" height="1.5" accel="2.6" decel="4.5" emergencyDecel="9" sigma="1.0" maxSpeed="200"
           guiShape="sedan" speedFactor="2.0" speedDeviation="0.1" minGap="2.5"/>


    <vType id="passenger car"
           vClass="passenger" length="5" width="1.8" height="1.5" accel="2.6" decel="4.5"  emergencyDecel="9" sigma="1.0" maxSpeed="200"
           guiShape="hatchback" speedFactor="2.0" speedDeviation="0.1" minGap="2.5"/>


    <vType id="passenger car"
           vClass="passenger" length="5" width="1.8" height="1.5" accel="2.6" decel="4.5" emergencyDecel="9" sigma="1.0" maxSpeed="200"
           guiShape="wagon" speedFactor="2.0" speedDeviation="0.1" minGap="2.5"/>


    <vType id="passenger car"
           vClass="passenger" length="4.7" width="1.9" height="1.73" accel="2.6" decel="4.5"  emergencyDecel="9" sigma="1.0" maxSpeed="200"
           guiShape="van" speedFactor="2.0" speedDeviation="0.1" minGap="2.5"/>


    <vType id="passenger car"
           vClass="taxi" length="5"  width="1.8" height="1.5" accel="2.6" decel="4.5" emergencyDecel="9" sigma="1.0" maxSpeed="200"
           guiShape="passenger" speedFactor="2.0" speedDeviation="0.05" minGap="2.5"/>


    <vType id="passenger car"
           vClass="emergency" length="6.5" width="2.16" height="2.86" accel="2.6" decel="4.5" emergencyDecel="9" sigma="1.0" maxSpeed="200"
           guiShape="delivery" speedFactor="4.0" speedDeviation="0" minGap="2.5"/>


    <vType id="passenger car"
           vClass="delivery" length="6.5" width="2.16" height="2.86" accel="2.6" decel="4.5" emergencyDecel="9" sigma="1.0" maxSpeed="200"
           guiShape="delivery" speedFactor="2.0" speedDeviation="0.05" minGap="2.5"/>


    <vType id="truck"
           vClass="truck" length="7.1" width="2.4" height="2.4" accel="1.3" decel="4" emergencyDecel="7" sigma="1.0" maxSpeed="130"
           guiShape="truck" speedFactor="2.0" speedDeviation="0.05" minGap="2.5"/>


    <vType id="truck"
           vClass="trailer" length="16.5" width="2.55" height="4" accel="1.1" decel="4" emergencyDecel="7" sigma="1.0" maxSpeed="130"
           guiShape="semitrailer" speedFactor="2.0" speedDeviation="0.05" minGap="2.5"/>


    <vType id="truck"
           vClass="trailer" length="18.75" width="2.55" height="4" accel="1" decel="4" emergencyDecel="7" sigma="1.0" maxSpeed="130"
           guiShape="trailer" speedFactor="2.0" speedDeviation="0.05" minGap="2.5"/>


    <vType id="bus"
           vClass="bus" length="12" width="2.5" height="3.4" accel="1.2" decel="4" emergencyDecel="7" sigma="1.0" maxSpeed="85"
           guiShape="bus" speedFactor="2.0" speedDeviation="0" minGap="2.5"/>


    <vType id="bus"
           vClass="bus" length="17.9" width="2.5" height="3.0" accel="1.2" decel="4" emergencyDecel="7" sigma="1.0" maxSpeed="85"
           guiShape="flexible" speedFactor="2.0" speedDeviation="0" minGap="2.5"/>


    <vType id="bus"
           vClass="coach" length="14" width="2.6" height="4" accel="2.0" decel="4" emergencyDecel="7" sigma="1.0" maxSpeed="100"
           guiShape="coach" speedFactor="2.0" speedDeviation="0.05" minGap="2.5"/>


    <vType id="electric vehicle"
           vClass="evehicle" length="5" width="1.8" height="1.5" accel="2.6" decel="4.5" emergencyDecel="9" sigma="1.0" maxSpeed="200"
           guiShape="evehicle" speedFactor="2.0" speedDeviation="0.1" minGap="2.5"/>


    <vType id="electric vehicle"
           vClass="e-scooter" length="1.1" width="0.4" height="1.2" accel="2" decel="4" emergencyDecel="7" sigma="1.0" maxSpeed="20"
           guiShape="e-scooter" speedFactor="2.0" speedDeviation="0.1" minGap="1.5"/>


    <route id="route_0" edges="e0 e1 e2 e3 e4 e5 e6 e7 e8 e9 e10 e11 e12 e13 e14 e15 e16 e17 e18 e19 e20 e21 e22 e23 e24"/>
    <flow id="two-wheeledvehicleflow" type="two-wheeled vehicle" beg="0" end="0" number="5" from="e1" to="e24"/>
    <flow id="passengercarflow" type="passenger car" beg="0" end="0" number="5" from="e1" to="e24"/>
    <flow id="truckflow" type="truck" beg="0" end="0" number="5" from="e1" to="e24"/>
    <flow id="busflow" type="bus" beg="0" end="0" number="5" from="e1" to="e24"/>
    <flow id="electricvehicleflow" type="electric vehicle" beg="0" end="0" number="5" from="e1" to="e24"/>


    <!--<vehicle id="0" type="car" route="route_0" depart="0" />-->

</routes>
