<configuration>
    <input>
        <net-file value="new-network.net.xml"/>
    </input>
</configuration>