<?xml version="1.0" encoding="UTF-8"?>
<!-- generated on 2022-02-16 10:05:40.817770 by osmWebWizard.py v1_12_0+0000-800cb422fa4
  options: 
-->
<routes xmlns:xsi="http://www.w3.org/2001/XMLSchema-instance" xsi:noNamespaceSchemaLocation="http://sumo.dlr.de/xsd/routes_file.xsd">
    <vType id="ped_pedestrian" vClass="pedestrian"/>
    <person id="ped0" depart="0.00" type="ped_pedestrian">
        <walk from="105258493" to="-104789478#3"/>
    </person>
    <person id="ped1" depart="7.38" type="ped_pedestrian">
        <walk from="-105350815#4" to="-105297395#1"/>
    </person>
    <person id="ped2" depart="14.77" type="ped_pedestrian">
        <walk from="105297398#5" to="105258517"/>
    </person>
    <person id="ped3" depart="22.15" type="ped_pedestrian">
        <walk from="116237622#0" to="-105019251#1"/>
    </person>
    <person id="ped4" depart="29.53" type="ped_pedestrian">
        <walk from="-116334755#5" to="-104789482"/>
    </person>
    <person id="ped5" depart="36.92" type="ped_pedestrian">
        <walk from="-105297384#2" to="104777740#0"/>
    </person>
    <person id="ped6" depart="44.30" type="ped_pedestrian">
        <walk from="-104789479" to="-105297363"/>
    </person>
    <person id="ped7" depart="51.69" type="ped_pedestrian">
        <walk from="105258501#0" to="105015963#1"/>
    </person>
    <person id="ped8" depart="59.07" type="ped_pedestrian">
        <walk from="-105297387#1" to="105019261#0"/>
    </person>
    <person id="ped9" depart="66.45" type="ped_pedestrian">
        <walk from="105350856#4" to="-104777724#1"/>
    </person>
    <person id="ped10" depart="73.84" type="ped_pedestrian">
        <walk from="105350856#1" to="105297365#3"/>
    </person>
    <person id="ped11" depart="81.22" type="ped_pedestrian">
        <walk from="-116234195#1" to="-105258501#1"/>
    </person>
    <person id="ped12" depart="88.60" type="ped_pedestrian">
        <walk from="116481175" to="-116234194#0"/>
    </person>
    <person id="ped13" depart="95.99" type="ped_pedestrian">
        <walk from="-105019257#2" to="-105019266#0"/>
    </person>
    <person id="ped14" depart="103.37" type="ped_pedestrian">
        <walk from="116234197#0" to="105019286#1"/>
    </person>
    <person id="ped15" depart="110.75" type="ped_pedestrian">
        <walk from="105350856#2" to="105297395#2"/>
    </person>
    <person id="ped16" depart="118.14" type="ped_pedestrian">
        <walk from="104789490#1" to="539612803#4"/>
    </person>
    <person id="ped17" depart="125.52" type="ped_pedestrian">
        <walk from="-116237615#0" to="105015979#2"/>
    </person>
    <person id="ped18" depart="132.91" type="ped_pedestrian">
        <walk from="115880804#1" to="105019305#2"/>
    </person>
    <person id="ped19" depart="140.29" type="ped_pedestrian">
        <walk from="116234234#0" to="105019238#0"/>
    </person>
    <person id="ped20" depart="147.67" type="ped_pedestrian">
        <walk from="105297371" to="-105015955"/>
    </person>
    <person id="ped21" depart="155.06" type="ped_pedestrian">
        <walk from="-105297398#2" to="-105350830#4"/>
    </person>
    <person id="ped22" depart="162.44" type="ped_pedestrian">
        <walk from="-105019232#2" to="-105297400#1"/>
    </person>
    <person id="ped23" depart="169.82" type="ped_pedestrian">
        <walk from="-105019271" to="-105350819#1"/>
    </person>
    <person id="ped24" depart="177.21" type="ped_pedestrian">
        <walk from="105019334" to="-116234239#0"/>
    </person>
    <person id="ped25" depart="184.59" type="ped_pedestrian">
        <walk from="-116234246" to="-105297371"/>
    </person>
    <person id="ped26" depart="191.97" type="ped_pedestrian">
        <walk from="-105305057#1" to="116334777#0"/>
    </person>
    <person id="ped27" depart="199.36" type="ped_pedestrian">
        <walk from="105258500#2" to="105019293#2"/>
    </person>
    <person id="ped28" depart="206.74" type="ped_pedestrian">
        <walk from="-105258510" to="105297395#2"/>
    </person>
    <person id="ped29" depart="214.12" type="ped_pedestrian">
        <walk from="-105258507#1" to="-116237615#1"/>
    </person>
    <person id="ped30" depart="221.51" type="ped_pedestrian">
        <walk from="995157430#2" to="105258493"/>
    </person>
    <person id="ped31" depart="228.89" type="ped_pedestrian">
        <walk from="105019183#1" to="105297351#1"/>
    </person>
    <person id="ped32" depart="236.28" type="ped_pedestrian">
        <walk from="116234195#0" to="105350815#2"/>
    </person>
    <person id="ped33" depart="243.66" type="ped_pedestrian">
        <walk from="-105297398#3" to="-104789484#1"/>
    </person>
    <person id="ped34" depart="251.04" type="ped_pedestrian">
        <walk from="-105578117#1" to="-105305057#1"/>
    </person>
    <person id="ped35" depart="258.43" type="ped_pedestrian">
        <walk from="-105297373#0" to="116334782#0"/>
    </person>
    <person id="ped36" depart="265.81" type="ped_pedestrian">
        <walk from="116234247#2" to="-105578117#1"/>
    </person>
    <person id="ped37" depart="273.19" type="ped_pedestrian">
        <walk from="105258503" to="-116237624#1"/>
    </person>
    <person id="ped38" depart="280.58" type="ped_pedestrian">
        <walk from="116237638#2" to="-116481185"/>
    </person>
    <person id="ped39" depart="287.96" type="ped_pedestrian">
        <walk from="-105305056#1" to="-105305005#0"/>
    </person>
    <person id="ped40" depart="295.34" type="ped_pedestrian">
        <walk from="105019192" to="-105305053"/>
    </person>
    <person id="ped41" depart="302.73" type="ped_pedestrian">
        <walk from="105019251#3" to="116237624#1"/>
    </person>
    <person id="ped42" depart="310.11" type="ped_pedestrian">
        <walk from="-116237627" to="-105297387#0"/>
    </person>
    <person id="ped43" depart="317.50" type="ped_pedestrian">
        <walk from="995157438" to="104777759"/>
    </person>
    <person id="ped44" depart="324.88" type="ped_pedestrian">
        <walk from="-105019257#0" to="-105015956"/>
    </person>
    <person id="ped45" depart="332.26" type="ped_pedestrian">
        <walk from="-105019287#0" to="105019313"/>
    </person>
    <person id="ped46" depart="339.65" type="ped_pedestrian">
        <walk from="105350830#3" to="-116334755#5"/>
    </person>
    <person id="ped47" depart="347.03" type="ped_pedestrian">
        <walk from="-105019183#3" to="-116237615#3"/>
    </person>
    <person id="ped48" depart="354.41" type="ped_pedestrian">
        <walk from="995157437" to="104789485#1"/>
    </person>
    <person id="ped49" depart="361.80" type="ped_pedestrian">
        <walk from="539612803#2" to="116234232"/>
    </person>
    <person id="ped50" depart="369.18" type="ped_pedestrian">
        <walk from="-104777746" to="105297387#1"/>
    </person>
    <person id="ped51" depart="376.56" type="ped_pedestrian">
        <walk from="105258721" to="104789490#2"/>
    </person>
    <person id="ped52" depart="383.95" type="ped_pedestrian">
        <walk from="-105305057#1" to="105258495#0"/>
    </person>
    <person id="ped53" depart="391.33" type="ped_pedestrian">
        <walk from="-105019287#2" to="-116334777#1"/>
    </person>
    <person id="ped54" depart="398.72" type="ped_pedestrian">
        <walk from="-116481174" to="116481170"/>
    </person>
    <person id="ped55" depart="406.10" type="ped_pedestrian">
        <walk from="116234247#2" to="-105305056#0"/>
    </person>
    <person id="ped56" depart="413.48" type="ped_pedestrian">
        <walk from="104777724#0" to="-105258514#3"/>
    </person>
    <person id="ped57" depart="420.87" type="ped_pedestrian">
        <walk from="116237637#1" to="116234242#3"/>
    </person>
    <person id="ped58" depart="428.25" type="ped_pedestrian">
        <walk from="-105350840#1" to="105258493"/>
    </person>
    <person id="ped59" depart="435.63" type="ped_pedestrian">
        <walk from="105019293#2" to="-105258500#2"/>
    </person>
    <person id="ped60" depart="443.02" type="ped_pedestrian">
        <walk from="105305034#2" to="105015951#0"/>
    </person>
    <person id="ped61" depart="450.40" type="ped_pedestrian">
        <walk from="105350815#4" to="104789486#0"/>
    </person>
    <person id="ped62" depart="457.78" type="ped_pedestrian">
        <walk from="-104777719" to="-115880795#1"/>
    </person>
    <person id="ped63" depart="465.17" type="ped_pedestrian">
        <walk from="-104789476#0" to="116334761#1"/>
    </person>
    <person id="ped64" depart="472.55" type="ped_pedestrian">
        <walk from="116237612#0" to="115880808#0"/>
    </person>
    <person id="ped65" depart="479.94" type="ped_pedestrian">
        <walk from="-105350862#0" to="-105015979#4"/>
    </person>
    <person id="ped66" depart="487.32" type="ped_pedestrian">
        <walk from="116237612#0" to="116334788#1"/>
    </person>
    <person id="ped67" depart="494.70" type="ped_pedestrian">
        <walk from="-105019251#0" to="-995157430#3"/>
    </person>
    <person id="ped68" depart="502.09" type="ped_pedestrian">
        <walk from="-105019196#2" to="105305034#0"/>
    </person>
    <person id="ped69" depart="509.47" type="ped_pedestrian">
        <walk from="105305052" to="-105019310#1"/>
    </person>
    <person id="ped70" depart="516.85" type="ped_pedestrian">
        <walk from="-657456139" to="105015979#0"/>
    </person>
    <person id="ped71" depart="524.24" type="ped_pedestrian">
        <walk from="-105305056#1" to="116234246"/>
    </person>
    <person id="ped72" depart="531.62" type="ped_pedestrian">
        <walk from="-116334756#0" to="-105297373#1"/>
    </person>
    <person id="ped73" depart="539.00" type="ped_pedestrian">
        <walk from="105015951#0" to="105297395#2"/>
    </person>
    <person id="ped74" depart="546.39" type="ped_pedestrian">
        <walk from="-105297365#2" to="-105578110#1"/>
    </person>
    <person id="ped75" depart="553.77" type="ped_pedestrian">
        <walk from="995157436#1" to="105258501#0"/>
    </person>
    <person id="ped76" depart="561.15" type="ped_pedestrian">
        <walk from="-116334780#0" to="104789478#0"/>
    </person>
    <person id="ped77" depart="568.54" type="ped_pedestrian">
        <walk from="-105019305#0" to="-105297397#0"/>
    </person>
    <person id="ped78" depart="575.92" type="ped_pedestrian">
        <walk from="-116234194#2" to="105019257#2"/>
    </person>
    <person id="ped79" depart="583.31" type="ped_pedestrian">
        <walk from="-105297398#5" to="-105297387#1"/>
    </person>
    <person id="ped80" depart="590.69" type="ped_pedestrian">
        <walk from="-105019221#0" to="105019318"/>
    </person>
    <person id="ped81" depart="598.07" type="ped_pedestrian">
        <walk from="-105297398#3" to="116237629#2"/>
    </person>
    <person id="ped82" depart="605.46" type="ped_pedestrian">
        <walk from="116234230" to="-105019221#0"/>
    </person>
    <person id="ped83" depart="612.84" type="ped_pedestrian">
        <walk from="-105297401#0" to="105258513"/>
    </person>
    <person id="ped84" depart="620.22" type="ped_pedestrian">
        <walk from="-105297380" to="-105019315"/>
    </person>
    <person id="ped85" depart="627.61" type="ped_pedestrian">
        <walk from="116334774#0" to="105019221#4"/>
    </person>
    <person id="ped86" depart="634.99" type="ped_pedestrian">
        <walk from="-539612804" to="105350819#4"/>
    </person>
    <person id="ped87" depart="642.37" type="ped_pedestrian">
        <walk from="105350856#2" to="-105297351#2"/>
    </person>
    <person id="ped88" depart="649.76" type="ped_pedestrian">
        <walk from="-105019266#0" to="-116334769"/>
    </person>
    <person id="ped89" depart="657.14" type="ped_pedestrian">
        <walk from="-116334756#1" to="-539612803#0"/>
    </person>
    <person id="ped90" depart="664.53" type="ped_pedestrian">
        <walk from="105297395#2" to="105258514#3"/>
    </person>
    <person id="ped91" depart="671.91" type="ped_pedestrian">
        <walk from="738167325#1" to="-105019266#1"/>
    </person>
    <person id="ped92" depart="679.29" type="ped_pedestrian">
        <walk from="-116237630" to="-116234195#0"/>
    </person>
    <person id="ped93" depart="686.68" type="ped_pedestrian">
        <walk from="116234234#0" to="-105305005#2"/>
    </person>
    <person id="ped94" depart="694.06" type="ped_pedestrian">
        <walk from="-105297351#2" to="-116334788#3"/>
    </person>
    <person id="ped95" depart="701.44" type="ped_pedestrian">
        <walk from="-116334755#5" to="-105350819#1"/>
    </person>
    <person id="ped96" depart="708.83" type="ped_pedestrian">
        <walk from="-105305005#3" to="116334755#4"/>
    </person>
    <person id="ped97" depart="716.21" type="ped_pedestrian">
        <walk from="-116334782#2" to="116234234#0"/>
    </person>
    <person id="ped98" depart="723.59" type="ped_pedestrian">
        <walk from="105015979#1" to="-105015966#0"/>
    </person>
    <person id="ped99" depart="730.98" type="ped_pedestrian">
        <walk from="995157440" to="115880826"/>
    </person>
    <person id="ped100" depart="738.36" type="ped_pedestrian">
        <walk from="539612803#1" to="116334756#1"/>
    </person>
    <person id="ped101" depart="745.75" type="ped_pedestrian">
        <walk from="116234197#1" to="-105258508#0"/>
    </person>
    <person id="ped102" depart="753.13" type="ped_pedestrian">
        <walk from="-995157430#3" to="-105297380"/>
    </person>
    <person id="ped103" depart="760.51" type="ped_pedestrian">
        <walk from="-116237629#0" to="-105015979#4"/>
    </person>
    <person id="ped104" depart="767.90" type="ped_pedestrian">
        <walk from="-116237615#1" to="738167326"/>
    </person>
    <person id="ped105" depart="775.28" type="ped_pedestrian">
        <walk from="-105305056#1" to="105350819#3"/>
    </person>
    <person id="ped106" depart="782.66" type="ped_pedestrian">
        <walk from="-116481175" to="-116334756#0"/>
    </person>
    <person id="ped107" depart="790.05" type="ped_pedestrian">
        <walk from="116481175" to="995157436#1"/>
    </person>
    <person id="ped108" depart="797.43" type="ped_pedestrian">
        <walk from="105019183#0" to="105297384#2"/>
    </person>
    <person id="ped109" depart="804.81" type="ped_pedestrian">
        <walk from="-105258501#1" to="-105350840#0"/>
    </person>
    <person id="ped110" depart="812.20" type="ped_pedestrian">
        <walk from="539612803#0" to="105019247#0"/>
    </person>
    <person id="ped111" depart="819.58" type="ped_pedestrian">
        <walk from="105015955" to="105299185"/>
    </person>
    <person id="ped112" depart="826.96" type="ped_pedestrian">
        <walk from="-105015979#3" to="105019251#2"/>
    </person>
    <person id="ped113" depart="834.35" type="ped_pedestrian">
        <walk from="104777729" to="116234207"/>
    </person>
    <person id="ped114" depart="841.73" type="ped_pedestrian">
        <walk from="-105258502#0" to="116481185"/>
    </person>
    <person id="ped115" depart="849.12" type="ped_pedestrian">
        <walk from="-105019233" to="-105258721"/>
    </person>
    <person id="ped116" depart="856.50" type="ped_pedestrian">
        <walk from="105019266#2" to="105258515"/>
    </person>
    <person id="ped117" depart="863.88" type="ped_pedestrian">
        <walk from="-105297400#3" to="-105019298#1"/>
    </person>
    <person id="ped118" depart="871.27" type="ped_pedestrian">
        <walk from="116237621" to="-105305005#0"/>
    </person>
    <person id="ped119" depart="878.65" type="ped_pedestrian">
        <walk from="105019266#2" to="105019305#3"/>
    </person>
    <person id="ped120" depart="886.03" type="ped_pedestrian">
        <walk from="-116334755#3" to="105019251#2"/>
    </person>
    <person id="ped121" depart="893.42" type="ped_pedestrian">
        <walk from="104789480" to="116334774#0"/>
    </person>
    <person id="ped122" depart="900.80" type="ped_pedestrian">
        <walk from="-105297365#4" to="105297384#0"/>
    </person>
    <person id="ped123" depart="908.18" type="ped_pedestrian">
        <walk from="-105297401#0" to="-116237624#1"/>
    </person>
    <person id="ped124" depart="915.57" type="ped_pedestrian">
        <walk from="105258514#1" to="-105350853#0"/>
    </person>
    <person id="ped125" depart="922.95" type="ped_pedestrian">
        <walk from="-105578137" to="105305005#0"/>
    </person>
    <person id="ped126" depart="930.34" type="ped_pedestrian">
        <walk from="-105019221#2" to="-116481185"/>
    </person>
    <person id="ped127" depart="937.72" type="ped_pedestrian">
        <walk from="995157439" to="995157437"/>
    </person>
    <person id="ped128" depart="945.10" type="ped_pedestrian">
        <walk from="-105019221#2" to="-105297375"/>
    </person>
    <person id="ped129" depart="952.49" type="ped_pedestrian">
        <walk from="-105305056#1" to="116334769"/>
    </person>
    <person id="ped130" depart="959.87" type="ped_pedestrian">
        <walk from="116237615#0" to="116237612#1"/>
    </person>
    <person id="ped131" depart="967.25" type="ped_pedestrian">
        <walk from="-116234244" to="-105258502#0"/>
    </person>
    <person id="ped132" depart="974.64" type="ped_pedestrian">
        <walk from="115880813#0" to="105297365#8"/>
    </person>
    <person id="ped133" depart="982.02" type="ped_pedestrian">
        <walk from="105019294#1" to="995157430#0"/>
    </person>
    <person id="ped134" depart="989.40" type="ped_pedestrian">
        <walk from="105258502#1" to="-104777730"/>
    </person>
    <person id="ped135" depart="996.79" type="ped_pedestrian">
        <walk from="105578117#0" to="-105350853#0"/>
    </person>
    <person id="ped136" depart="1004.17" type="ped_pedestrian">
        <walk from="105258509#0" to="116334779#1"/>
    </person>
    <person id="ped137" depart="1011.56" type="ped_pedestrian">
        <walk from="-105019317" to="-105019294#0"/>
    </person>
    <person id="ped138" depart="1018.94" type="ped_pedestrian">
        <walk from="-105019286#0" to="105015979#3"/>
    </person>
    <person id="ped139" depart="1026.32" type="ped_pedestrian">
        <walk from="-105350815#2" to="105019287#0"/>
    </person>
    <person id="ped140" depart="1033.71" type="ped_pedestrian">
        <walk from="105297384#1" to="-105297365#4"/>
    </person>
    <person id="ped141" depart="1041.09" type="ped_pedestrian">
        <walk from="105019332#1" to="-105305056#0"/>
    </person>
    <person id="ped142" depart="1048.47" type="ped_pedestrian">
        <walk from="-995157435" to="116237629#2"/>
    </person>
    <person id="ped143" depart="1055.86" type="ped_pedestrian">
        <walk from="116234196" to="-105019257#2"/>
    </person>
    <person id="ped144" depart="1063.24" type="ped_pedestrian">
        <walk from="-116334756#1" to="-105350819#0"/>
    </person>
    <person id="ped145" depart="1070.62" type="ped_pedestrian">
        <walk from="-104777721#1" to="105305057#1"/>
    </person>
    <person id="ped146" depart="1078.01" type="ped_pedestrian">
        <walk from="105019338" to="-105305052"/>
    </person>
    <person id="ped147" depart="1085.39" type="ped_pedestrian">
        <walk from="105297400#4" to="105015979#2"/>
    </person>
    <person id="ped148" depart="1092.78" type="ped_pedestrian">
        <walk from="-116334761#1" to="-104777740#0"/>
    </person>
    <person id="ped149" depart="1100.16" type="ped_pedestrian">
        <walk from="-105019221#4" to="116237615#2"/>
    </person>
    <person id="ped150" depart="1107.54" type="ped_pedestrian">
        <walk from="116237629#1" to="105015966#0"/>
    </person>
    <person id="ped151" depart="1114.93" type="ped_pedestrian">
        <walk from="115880813#1" to="105019251#1"/>
    </person>
    <person id="ped152" depart="1122.31" type="ped_pedestrian">
        <walk from="-105258495#4" to="-105019310#0"/>
    </person>
    <person id="ped153" depart="1129.69" type="ped_pedestrian">
        <walk from="-105350862#1" to="116237626#0"/>
    </person>
    <person id="ped154" depart="1137.08" type="ped_pedestrian">
        <walk from="105350835" to="116234232"/>
    </person>
    <person id="ped155" depart="1144.46" type="ped_pedestrian">
        <walk from="116237626#0" to="-105297373#0"/>
    </person>
    <person id="ped156" depart="1151.84" type="ped_pedestrian">
        <walk from="-105305005#3" to="-105019274"/>
    </person>
    <person id="ped157" depart="1159.23" type="ped_pedestrian">
        <walk from="105350819#0" to="116237615#3"/>
    </person>
    <person id="ped158" depart="1166.61" type="ped_pedestrian">
        <walk from="-116237633#0" to="105019305#4"/>
    </person>
    <person id="ped159" depart="1173.99" type="ped_pedestrian">
        <walk from="-105258501#1" to="116334761#1"/>
    </person>
    <person id="ped160" depart="1181.38" type="ped_pedestrian">
        <walk from="116234234#3" to="657456139"/>
    </person>
    <person id="ped161" depart="1188.76" type="ped_pedestrian">
        <walk from="105350862#0" to="116237615#1"/>
    </person>
    <person id="ped162" depart="1196.15" type="ped_pedestrian">
        <walk from="-104789478#3" to="105297398#5"/>
    </person>
    <person id="ped163" depart="1203.53" type="ped_pedestrian">
        <walk from="-115880813#1" to="116334763"/>
    </person>
    <person id="ped164" depart="1210.91" type="ped_pedestrian">
        <walk from="105350853#0" to="116234234#2"/>
    </person>
    <person id="ped165" depart="1218.30" type="ped_pedestrian">
        <walk from="105350862#0" to="-105305057#1"/>
    </person>
    <person id="ped166" depart="1225.68" type="ped_pedestrian">
        <walk from="105350824#1" to="-105019286#1"/>
    </person>
    <person id="ped167" depart="1233.06" type="ped_pedestrian">
        <walk from="116234244" to="116234220#1"/>
    </person>
    <person id="ped168" depart="1240.45" type="ped_pedestrian">
        <walk from="-105297395#1" to="105578111"/>
    </person>
    <person id="ped169" depart="1247.83" type="ped_pedestrian">
        <walk from="-116481186#1" to="-105350856#3"/>
    </person>
    <person id="ped170" depart="1255.21" type="ped_pedestrian">
        <walk from="105350834" to="-105297398#1"/>
    </person>
    <person id="ped171" depart="1262.60" type="ped_pedestrian">
        <walk from="-104789478#2" to="-105297355"/>
    </person>
    <person id="ped172" depart="1269.98" type="ped_pedestrian">
        <walk from="-115880808#0" to="116234234#2"/>
    </person>
    <person id="ped173" depart="1277.37" type="ped_pedestrian">
        <walk from="116501230" to="-105350819#2"/>
    </person>
    <person id="ped174" depart="1284.75" type="ped_pedestrian">
        <walk from="105258495#2" to="-116237627"/>
    </person>
    <person id="ped175" depart="1292.13" type="ped_pedestrian">
        <walk from="738167324" to="104789490#1"/>
    </person>
    <person id="ped176" depart="1299.52" type="ped_pedestrian">
        <walk from="116334779#1" to="-105019294#0"/>
    </person>
    <person id="ped177" depart="1306.90" type="ped_pedestrian">
        <walk from="539612803#2" to="-105258514#3"/>
    </person>
    <person id="ped178" depart="1314.28" type="ped_pedestrian">
        <walk from="116481186#1" to="-105305056#1"/>
    </person>
    <person id="ped179" depart="1321.67" type="ped_pedestrian">
        <walk from="-105019286#1" to="-116334777#1"/>
    </person>
    <person id="ped180" depart="1329.05" type="ped_pedestrian">
        <walk from="105297395#1" to="-105578117#0"/>
    </person>
    <person id="ped181" depart="1336.43" type="ped_pedestrian">
        <walk from="105019287#1" to="104777763#1"/>
    </person>
    <person id="ped182" depart="1343.82" type="ped_pedestrian">
        <walk from="-116237619#1" to="105019233"/>
    </person>
    <person id="ped183" depart="1351.20" type="ped_pedestrian">
        <walk from="-105305032" to="105297375"/>
    </person>
    <person id="ped184" depart="1358.59" type="ped_pedestrian">
        <walk from="-104777720" to="116334756#1"/>
    </person>
    <person id="ped185" depart="1365.97" type="ped_pedestrian">
        <walk from="104789493" to="105297387#0"/>
    </person>
    <person id="ped186" depart="1373.35" type="ped_pedestrian">
        <walk from="105297400#4" to="105258514#0"/>
    </person>
    <person id="ped187" depart="1380.74" type="ped_pedestrian">
        <walk from="-116234234#3" to="-105019196#2"/>
    </person>
    <person id="ped188" depart="1388.12" type="ped_pedestrian">
        <walk from="105258509#0" to="-115880813#0"/>
    </person>
    <person id="ped189" depart="1395.50" type="ped_pedestrian">
        <walk from="-105578117#0" to="116234197#1"/>
    </person>
    <person id="ped190" depart="1402.89" type="ped_pedestrian">
        <walk from="105297387#0" to="-105350853#1"/>
    </person>
    <person id="ped191" depart="1410.27" type="ped_pedestrian">
        <walk from="-105350862#2" to="-116237635#0"/>
    </person>
    <person id="ped192" depart="1417.65" type="ped_pedestrian">
        <walk from="-116237630" to="-105350839#2"/>
    </person>
    <person id="ped193" depart="1425.04" type="ped_pedestrian">
        <walk from="-105019310#0" to="-116334755#4"/>
    </person>
    <person id="ped194" depart="1432.42" type="ped_pedestrian">
        <walk from="116334780#0" to="105258517"/>
    </person>
    <person id="ped195" depart="1439.81" type="ped_pedestrian">
        <walk from="116237629#0" to="105019298#1"/>
    </person>
    <person id="ped196" depart="1447.19" type="ped_pedestrian">
        <walk from="-105350853#1" to="105015969"/>
    </person>
    <person id="ped197" depart="1454.57" type="ped_pedestrian">
        <walk from="-104777719" to="-105350830#2"/>
    </person>
    <person id="ped198" depart="1461.96" type="ped_pedestrian">
        <walk from="-116334767" to="105019247#0"/>
    </person>
    <person id="ped199" depart="1469.34" type="ped_pedestrian">
        <walk from="105258503" to="-116501230"/>
    </person>
    <person id="ped200" depart="1476.72" type="ped_pedestrian">
        <walk from="-116334782#1" to="-105297380"/>
    </person>
    <person id="ped201" depart="1484.11" type="ped_pedestrian">
        <walk from="-539612804" to="116237627"/>
    </person>
    <person id="ped202" depart="1491.49" type="ped_pedestrian">
        <walk from="105350835" to="-105258509#1"/>
    </person>
    <person id="ped203" depart="1498.87" type="ped_pedestrian">
        <walk from="-105019247#1" to="104789476#0"/>
    </person>
    <person id="ped204" depart="1506.26" type="ped_pedestrian">
        <walk from="105019332#0" to="-115880827#1"/>
    </person>
    <person id="ped205" depart="1513.64" type="ped_pedestrian">
        <walk from="105578117#1" to="105305005#0"/>
    </person>
    <person id="ped206" depart="1521.02" type="ped_pedestrian">
        <walk from="105258514#2" to="-105297397#0"/>
    </person>
    <person id="ped207" depart="1528.41" type="ped_pedestrian">
        <walk from="-105297365#0" to="-104789478#2"/>
    </person>
    <person id="ped208" depart="1535.79" type="ped_pedestrian">
        <walk from="-105304996#1" to="-657456139"/>
    </person>
    <person id="ped209" depart="1543.18" type="ped_pedestrian">
        <walk from="116234198" to="-105019221#2"/>
    </person>
    <person id="ped210" depart="1550.56" type="ped_pedestrian">
        <walk from="-116237639" to="105019317"/>
    </person>
    <person id="ped211" depart="1557.94" type="ped_pedestrian">
        <walk from="-105297356#0" to="105297365#1"/>
    </person>
    <person id="ped212" depart="1565.33" type="ped_pedestrian">
        <walk from="-995157439" to="-105304996#0"/>
    </person>
    <person id="ped213" depart="1572.71" type="ped_pedestrian">
        <walk from="105258504#0" to="-104777724#0"/>
    </person>
    <person id="ped214" depart="1580.09" type="ped_pedestrian">
        <walk from="105304996#1" to="105305057#0"/>
    </person>
    <person id="ped215" depart="1587.48" type="ped_pedestrian">
        <walk from="-105019283#1" to="-116334758"/>
    </person>
    <person id="ped216" depart="1594.86" type="ped_pedestrian">
        <walk from="-105258514#1" to="116481177"/>
    </person>
    <person id="ped217" depart="1602.24" type="ped_pedestrian">
        <walk from="104789478#1" to="-105015966#0"/>
    </person>
    <person id="ped218" depart="1609.63" type="ped_pedestrian">
        <walk from="-105305005#3" to="116234197#1"/>
    </person>
    <person id="ped219" depart="1617.01" type="ped_pedestrian">
        <walk from="-116481177" to="105350840#1"/>
    </person>
    <person id="ped220" depart="1624.40" type="ped_pedestrian">
        <walk from="105258510" to="995157430#1"/>
    </person>
    <person id="ped221" depart="1631.78" type="ped_pedestrian">
        <walk from="105019266#2" to="116334788#4"/>
    </person>
    <person id="ped222" depart="1639.16" type="ped_pedestrian">
        <walk from="116237622#0" to="105019294#2"/>
    </person>
    <person id="ped223" depart="1646.55" type="ped_pedestrian">
        <walk from="105297387#0" to="104777740#0"/>
    </person>
    <person id="ped224" depart="1653.93" type="ped_pedestrian">
        <walk from="115880805" to="105015969"/>
    </person>
    <person id="ped225" depart="1661.31" type="ped_pedestrian">
        <walk from="116237624#0" to="105297401#0"/>
    </person>
    <person id="ped226" depart="1668.70" type="ped_pedestrian">
        <walk from="-657456139" to="-105305045"/>
    </person>
    <person id="ped227" depart="1676.08" type="ped_pedestrian">
        <walk from="-105305005#1" to="105019338"/>
    </person>
    <person id="ped228" depart="1683.46" type="ped_pedestrian">
        <walk from="105305052" to="104789479"/>
    </person>
    <person id="ped229" depart="1690.85" type="ped_pedestrian">
        <walk from="105019313" to="-105350815#4"/>
    </person>