<?xml version="1.0" encoding="UTF-8"?>

<!-- generated on 2022-02-16 10:05:30 by Eclipse SUMO netconvert Version 1.12.0
<configuration xmlns:xsi="http://www.w3.org/2001/XMLSchema-instance" xsi:noNamespaceSchemaLocation="http://sumo.dlr.de/xsd/netconvertConfiguration.xsd">

    <input>
        <type-files value="C:\Program%20Files%20(x86)\Eclipse\Sumo\data\typemap\osmNetconvert.typ.xml,C:\Program%20Files%20(x86)\Eclipse\Sumo\data\typemap\osmNetconvertUrbanDe.typ.xml,C:\Program%20Files%20(x86)\Eclipse\Sumo\data\typemap\osmNetconvertPedestrians.typ.xml,C:\Program%20Files%20(x86)\Eclipse\Sumo\data\typemap\osmNetconvertBicycle.typ.xml"/>
        <osm-files value="osm_bbox.osm.xml"/>
    </input>

    <output>
        <output-file value="osm.net.xml"/>
        <output.street-names value="true"/>
        <output.original-names value="true"/>
    </output>

    <projection>
        <proj.utm value="true"/>
    </projection>

    <processing>
        <geometry.remove value="true"/>
        <roundabouts.guess value="true"/>
        <lefthand value="true"/>
    </processing>

    <tls_building>
        <tls.discard-simple value="true"/>
        <tls.join value="true"/>
        <tls.guess-signals value="true"/>
        <tls.default-type value="actuated"/>
    </tls_building>

    <ramp_guessing>
        <ramps.guess value="true"/>
    </ramp_guessing>

    <junctions>
        <junctions.join value="true"/>
        <junctions.corner-detail value="5"/>
    </junctions>

    <pedestrian>
        <crossings.guess value="true"/>
    </pedestrian>

    <formats>
        <osm.bike-access value="true"/>
        <osm.sidewalks value="true"/>
    </formats>

    <report>
        <verbose value="true"/>
        <aggregate-warnings value="5"/>
    </report>

</configuration>
-->

<net version="1.9" junctionCornerDetail="5" walkingareas="true" lefthand="true" limitTurnSpeed="5.50" xmlns:xsi="http://www.w3.org/2001/XMLSchema-instance" xsi:noNamespaceSchemaLocation="http://sumo.dlr.de/xsd/net_file.xsd">

    <location netOffset="-638350.65,-2488399.93" convBoundary="0.00,-0.00,5002.62,14445.71" origBoundary="88.345030,22.496448,88.394635,22.626663" projParameter="+proj=utm +zone=45 +ellps=WGS84 +datum=WGS84 +units=m +no_defs"/>

    <type id="cycleway.lane" allow="bicycle" bikeLaneWidth="1.00"/>
    <type id="cycleway.opposite_lane" allow="bicycle" bikeLaneWidth="1.00"/>
    <type id="cycleway.opposite_track" allow="bicycle" bikeLaneWidth="1.50"/>
    <type id="cycleway.track" allow="bicycle" bikeLaneWidth="1.50"/>
    <type id="highway.bridleway" priority="1" numLanes="1" speed="2.78" allow="pedestrian" oneway="1" width="2.00"/>
    <type id="highway.bus_guideway" priority="1" numLanes="1" speed="13.89" allow="bus" oneway="1"/>
    <type id="highway.cycleway" priority="1" numLanes="1" speed="8.33" allow="bicycle" oneway="0" width="1.00"/>
    <type id="highway.footway" priority="1" numLanes="1" speed="2.78" allow="pedestrian" oneway="1" width="2.00"/>
    <type id="highway.ford" priority="1" numLanes="1" speed="2.78" allow="army" oneway="0"/>
    <type id="highway.living_street" priority="2" numLanes="1" speed="2.78" disallow="tram rail_urban rail rail_electric rail_fast ship" oneway="0"/>
    <type id="highway.motorway" priority="14" numLanes="2" speed="27.78" allow="private emergency authority army vip passenger hov taxi bus coach delivery truck trailer motorcycle evehicle custom1 custom2" oneway="1"/>
    <type id="highway.motorway_link" priority="9" numLanes="1" speed="16.67" allow="private emergency authority army vip passenger hov taxi bus coach delivery truck trailer motorcycle evehicle custom1 custom2" oneway="1"/>
    <type id="highway.path" priority="1" numLanes="1" speed="2.78" allow="pedestrian bicycle" oneway="0" width="2.00"/>
    <type id="highway.pedestrian" priority="1" numLanes="1" speed="2.78" allow="pedestrian" oneway="1" width="2.00"/>
    <type id="highway.primary" priority="12" numLanes="2" speed="13.89" disallow="pedestrian tram rail_urban rail rail_electric rail_fast ship" oneway="0" sidewalkWidth="3.00"/>
    <type id="highway.primary_link" priority="7" numLanes="1" speed="13.89" disallow="pedestrian tram rail_urban rail rail_electric rail_fast ship" oneway="0" sidewalkWidth="3.00"/>
    <type id="highway.raceway" priority="15" numLanes="2" speed="83.33" allow="vip" oneway="0"/>
    <type id="highway.residential" priority="3" numLanes="1" speed="13.89" disallow="pedestrian tram rail_urban rail rail_electric rail_fast ship" oneway="0" sidewalkWidth="2.00"/>
    <type id="highway.secondary" priority="11" numLanes="1" speed="13.89" disallow="pedestrian tram rail_urban rail rail_electric rail_fast ship" oneway="0" sidewalkWidth="3.00"/>
    <type id="highway.secondary_link" priority="6" numLanes="1" speed="13.89" disallow="pedestrian tram rail_urban rail rail_electric rail_fast ship" oneway="0" sidewalkWidth="3.00"/>
    <type id="highway.service" priority="1" numLanes="1" speed="5.56" allow="pedestrian delivery bicycle" oneway="0"/>
    <type id="highway.stairs" priority="1" numLanes="1" speed="1.39" allow="pedestrian" oneway="1" width="2.00"/>
    <type id="highway.step" priority="1" numLanes="1" speed="1.39" allow="pedestrian" oneway="1" width="2.00"/>
    <type id="highway.steps" priority="1" numLanes="1" speed="1.39" allow="pedestrian" oneway="1" width="2.00"/>
    <type id="highway.tertiary" priority="10" numLanes="1" speed="13.89" disallow="pedestrian tram rail_urban rail rail_electric rail_fast ship" oneway="0" sidewalkWidth="3.00"/>
    <type id="highway.tertiary_link" priority="5" numLanes="1" speed="13.89" disallow="pedestrian tram rail_urban rail rail_electric rail_fast ship" oneway="0" sidewalkWidth="2.00"/>
    <type id="highway.track" priority="1" numLanes="1" speed="5.56" allow="pedestrian motorcycle moped bicycle" oneway="0"/>
    <type id="highway.trunk" priority="13" numLanes="2" speed="13.89" disallow="pedestrian bicycle tram rail_urban rail rail_electric rail_fast ship" oneway="0"/>
    <type id="highway.trunk_link" priority="8" numLanes="1" speed="13.89" disallow="pedestrian bicycle tram rail_urban rail rail_electric rail_fast ship" oneway="0"/>
    <type id="highway.unclassified" priority="4" numLanes="1" speed="13.89" disallow="pedestrian tram rail_urban rail rail_electric rail_fast ship" oneway="0" sidewalkWidth="2.00"/>
    <type id="highway.unsurfaced" priority="1" numLanes="1" speed="8.33" disallow="tram rail_urban rail rail_electric rail_fast ship" oneway="0"/>
    <type id="railway.highspeed" priority="21" numLanes="1" speed="69.44" allow="rail_fast" oneway="1"/>
    <type id="railway.light_rail" priority="19" numLanes="1" speed="27.78" allow="rail_urban" oneway="1"/>
    <type id="railway.preserved" priority="16" numLanes="1" speed="27.78" allow="rail" oneway="1"/>
    <type id="railway.rail" priority="20" numLanes="1" speed="44.44" allow="rail" oneway="1"/>
    <type id="railway.subway" priority="18" numLanes="1" speed="27.78" allow="rail_urban" oneway="1"/>
    <type id="railway.tram" priority="17" numLanes="1" speed="13.89" allow="tram" oneway="1"/>

    <edge id=":1074604643_0" function="internal">
        <lane id=":1074604643_0_0" index="0" allow="rail rail_electric rail_fast" speed="44.44" length="2.98" shape="3583.87,11984.57 3581.87,11986.78"/>
    </edge>
    <edge id=":1177814955_0" function="internal">
        <lane id=":1177814955_0_0" index="0" allow="delivery bicycle" speed="9.11" length="8.67" shape="2805.10,11808.02 2803.81,11807.85 2802.16,11807.08 2800.15,11805.68 2797.78,11803.67"/>
    </edge>
    <edge id=":1177814955_1" function="internal">
        <lane id=":1177814955_1_0" index="0" disallow="pedestrian tram rail_urban rail rail_electric rail_fast ship" speed="13.89" length="10.76" shape="2805.10,11808.02 2802.05,11808.47 2799.80,11808.90 2797.56,11809.42 2794.56,11810.13"/>
    </edge>
    <edge id=":1177814955_2" function="internal">
        <lane id=":1177814955_2_0" index="0" disallow="pedestrian tram rail_urban rail rail_electric rail_fast ship" speed="13.89" length="10.46" shape="2795.27,11813.25 2798.23,11812.55 2800.36,11812.05 2802.51,11811.63 2805.52,11811.19"/>
    </edge>
    <edge id=":1177814955_3" function="internal">
        <lane id=":1177814955_3_0" index="0" allow="delivery bicycle" speed="6.71" length="4.45" shape="2795.27,11813.25 2799.33,11811.76 2799.41,11811.67"/>
    </edge>
    <edge id=":1177814955_7" function="internal">
        <lane id=":1177814955_7_0" index="0" allow="delivery bicycle" speed="6.71" length="9.70" shape="2799.41,11811.67 2801.11,11809.67 2800.59,11806.97 2797.78,11803.67"/>
    </edge>
    <edge id=":1177814955_4" function="internal">
        <lane id=":1177814955_4_0" index="0" allow="delivery bicycle" speed="4.66" length="6.04" shape="2795.63,11806.04 2796.83,11807.45 2797.05,11808.60 2796.29,11809.49 2794.56,11810.13"/>
    </edge>
    <edge id=":1177814955_5" function="internal">
        <lane id=":1177814955_5_0" index="0" allow="delivery bicycle" speed="9.72" length="11.43" shape="2795.63,11806.04 2798.57,11808.48 2801.20,11810.15 2803.52,11811.05 2805.52,11811.19"/>
    </edge>
    <edge id=":1177814955_6" function="internal">
        <lane id=":1177814955_6_0" index="0" allow="pedestrian delivery bicycle" speed="3.65" length="4.67" shape="2795.63,11806.04 2797.06,11806.26 2797.89,11805.93 2798.13,11805.07 2797.78,11803.67"/>
    </edge>
    <edge id=":1177814955_w0" function="walkingarea">
        <lane id=":1177814955_w0_0" index="0" allow="pedestrian" speed="1.00" length="3.20" width="3.20" shape="2794.55,11807.23 2796.71,11804.86 2796.71,11804.86 2798.86,11802.49 2802.59,11806.75 2800.90,11807.03 2799.51,11807.31 2798.13,11807.63 2796.46,11808.04"/>
    </edge>
    <edge id=":1177815066_0" function="internal">
        <lane id=":1177815066_0_0" index="0" allow="delivery bicycle" speed="5.13" length="4.91" shape="2175.09,11900.89 2173.78,11900.61 2172.85,11899.98 2172.29,11899.01 2172.10,11897.69"/>
    </edge>
    <edge id=":1177815066_1" function="internal">
        <lane id=":1177815066_1_0" index="0" disallow="pedestrian tram rail_urban rail rail_electric rail_fast ship" speed="13.89" length="8.91" shape="2175.09,11900.89 2172.45,11900.71 2170.63,11900.71 2168.84,11901.00 2166.29,11901.67"/>
    </edge>
    <edge id=":1177815066_2" function="internal">
        <lane id=":1177815066_2_0" index="0" disallow="pedestrian tram rail_urban rail rail_electric rail_fast ship" speed="13.89" length="7.80" shape="2167.15,11904.75 2169.38,11904.17 2170.95,11903.92 2172.54,11903.92 2174.85,11904.08"/>
    </edge>
    <edge id=":1177815066_3" function="internal">
        <lane id=":1177815066_3_0" index="0" allow="delivery bicycle" speed="7.34" length="2.92" shape="2167.15,11904.75 2169.33,11903.79 2169.71,11903.41"/>
    </edge>
    <edge id=":1177815066_7" function="internal">
        <lane id=":1177815066_7_0" index="0" allow="delivery bicycle" speed="7.34" length="6.44" shape="2169.71,11903.41 2170.88,11902.29 2171.80,11900.26 2172.10,11897.69"/>
    </edge>
    <edge id=":1177815066_4" function="internal">
        <lane id=":1177815066_4_0" index="0" allow="delivery bicycle" speed="5.62" length="5.15" shape="2168.90,11897.70 2168.75,11899.16 2168.26,11900.31 2167.44,11901.15 2166.29,11901.67"/>
    </edge>
    <edge id=":1177815066_5" function="internal">
        <lane id=":1177815066_5_0" index="0" allow="delivery bicycle" speed="6.94" length="9.78" shape="2168.90,11897.70 2169.28,11900.33 2170.40,11902.26 2172.25,11903.52 2174.85,11904.08"/>
    </edge>
    <edge id=":1177815066_6" function="internal">
        <lane id=":1177815066_6_0" index="0" allow="pedestrian delivery bicycle" speed="3.65" length="4.67" shape="2168.90,11897.70 2169.71,11898.90 2170.51,11899.29 2171.31,11898.89 2172.10,11897.69"/>
    </edge>
    <edge id=":1177815066_w0" function="walkingarea">
        <lane id=":1177815066_w0_0" index="0" allow="pedestrian" speed="1.00" length="3.20" width="3.20" shape="2167.30,11897.70 2170.50,11897.69 2170.50,11897.69 2173.70,11897.68 2173.20,11899.15 2171.71,11899.08 2170.48,11899.11 2169.26,11899.27 2167.80,11899.60"/>
    </edge>
    <edge id=":1177815181_0" function="internal">
        <lane id=":1177815181_0_0" index="0" disallow="pedestrian tram rail_urban rail rail_electric rail_fast ship" speed="3.65" length="4.67" shape="3232.10,11068.20 3231.34,11066.98 3230.55,11066.56 3229.74,11066.94 3228.91,11068.11"/>
    </edge>
    <edge id=":1177815323_0" function="internal">
        <lane id=":1177815323_0_0" index="0" disallow="pedestrian tram rail_urban rail rail_electric rail_fast ship" speed="7.18" length="10.07" shape="3031.12,11817.78 3030.18,11820.05 3028.57,11821.58 3026.27,11822.38 3023.31,11822.44"/>
    </edge>
    <edge id=":1177815323_1" function="internal">
        <lane id=":1177815323_1_0" index="0" disallow="pedestrian tram rail_urban rail rail_electric rail_fast ship" speed="13.89" length="14.67" shape="3031.12,11817.78 3030.24,11821.38 3029.29,11824.89 3028.24,11828.37 3027.10,11831.89"/>
    </edge>
    <edge id=":1177815323_2" function="internal">
        <lane id=":1177815323_2_0" index="0" disallow="pedestrian tram rail_urban rail rail_electric rail_fast ship" speed="3.65" length="1.44" shape="3031.12,11817.78 3031.63,11819.13"/>
    </edge>
    <edge id=":1177815323_9" function="internal">
        <lane id=":1177815323_9_0" index="0" disallow="pedestrian tram rail_urban rail rail_electric rail_fast ship" speed="3.65" length="3.23" shape="3031.63,11819.13 3032.32,11819.70 3033.19,11819.48 3034.24,11818.49"/>
    </edge>
    <edge id=":1177815323_3" function="internal">
        <lane id=":1177815323_3_0" index="0" disallow="pedestrian tram rail_urban rail rail_electric rail_fast ship" speed="13.89" length="14.99" shape="3030.13,11832.90 3031.29,11829.34 3032.37,11825.75 3033.35,11822.13 3034.24,11818.49"/>
    </edge>
    <edge id=":1177815323_4" function="internal">
        <lane id=":1177815323_4_0" index="0" disallow="pedestrian tram rail_urban rail rail_electric rail_fast ship" speed="7.65" length="4.41" shape="3030.13,11832.90 3030.91,11828.67 3030.88,11828.57"/>
    </edge>
    <edge id=":1177815323_5" function="internal">
        <lane id=":1177815323_5_0" index="0" disallow="pedestrian tram rail_urban rail rail_electric rail_fast ship" speed="3.65" length="1.44" shape="3030.13,11832.90 3029.76,11831.51"/>
    </edge>
    <edge id=":1177815323_10" function="internal">
        <lane id=":1177815323_10_0" index="0" disallow="pedestrian tram rail_urban rail rail_electric rail_fast ship" speed="7.65" length="10.75" shape="3030.88,11828.57 3030.02,11825.52 3027.49,11823.44 3023.31,11822.44"/>
    </edge>
    <edge id=":1177815323_11" function="internal">
        <lane id=":1177815323_11_0" index="0" disallow="pedestrian tram rail_urban rail rail_electric rail_fast ship" speed="3.65" length="3.23" shape="3029.76,11831.51 3029.12,11830.88 3028.24,11831.00 3027.10,11831.89"/>
    </edge>
    <edge id=":1177815323_6" function="internal">
        <lane id=":1177815323_6_0" index="0" disallow="pedestrian tram rail_urban rail rail_electric rail_fast ship" speed="6.06" length="9.07" shape="3023.01,11825.63 3025.52,11826.23 3027.03,11827.47 3027.56,11829.36 3027.10,11831.89"/>
    </edge>
    <edge id=":1177815323_7" function="internal">
        <lane id=":1177815323_7_0" index="0" disallow="pedestrian tram rail_urban rail rail_electric rail_fast ship" speed="8.56" length="14.75" shape="3023.01,11825.63 3027.24,11825.51 3030.52,11824.28 3032.85,11821.94 3034.24,11818.49"/>
    </edge>
    <edge id=":1177815323_8" function="internal">
        <lane id=":1177815323_8_0" index="0" disallow="pedestrian tram rail_urban rail rail_electric rail_fast ship" speed="3.65" length="4.67" shape="3023.01,11825.63 3024.28,11824.94 3024.75,11824.18 3024.43,11823.35 3023.31,11822.44"/>
    </edge>
    <edge id=":1177815913_0" function="internal">
        <lane id=":1177815913_0_0" index="0" disallow="pedestrian tram rail_urban rail rail_electric rail_fast ship" speed="9.81" length="14.35" shape="2272.74,11908.77 2269.02,11907.82 2266.01,11906.09 2263.73,11903.57 2262.18,11900.27"/>
    </edge>
    <edge id=":1177815913_1" function="internal">
        <lane id=":1177815913_1_0" index="0" disallow="pedestrian tram rail_urban rail rail_electric rail_fast ship" speed="13.89" length="18.10" shape="2272.74,11908.77 2254.74,11906.86"/>
    </edge>
    <edge id=":1177815913_2" function="internal">
        <lane id=":1177815913_2_0" index="0" disallow="pedestrian tram rail_urban rail rail_electric rail_fast ship" speed="7.43" length="16.47" shape="2272.74,11908.77 2267.84,11908.77 2264.91,11910.37 2263.94,11913.56 2264.93,11918.36"/>
    </edge>
    <edge id=":1177815913_3" function="internal">
        <lane id=":1177815913_3_0" index="0" disallow="pedestrian tram rail_urban rail rail_electric rail_fast ship" speed="3.65" length="4.67" shape="2272.74,11908.77 2271.44,11909.40 2270.93,11910.14 2271.22,11910.99 2272.30,11911.94"/>
    </edge>
    <edge id=":1177815913_4" function="internal">
        <lane id=":1177815913_4_0" index="0" disallow="pedestrian tram rail_urban rail rail_electric rail_fast ship" speed="5.72" length="9.19" shape="2267.95,11917.29 2267.39,11914.62 2267.93,11912.83 2269.57,11911.94 2272.30,11911.94"/>
    </edge>
    <edge id=":1177815913_5" function="internal">
        <lane id=":1177815913_5_0" index="0" disallow="pedestrian tram rail_urban rail rail_electric rail_fast ship" speed="13.89" length="17.97" shape="2267.95,11917.29 2262.18,11900.27"/>
    </edge>
    <edge id=":1177815913_6" function="internal">
        <lane id=":1177815913_6_0" index="0" disallow="pedestrian tram rail_urban rail rail_electric rail_fast ship" speed="10.58" length="4.91" shape="2267.95,11917.29 2265.85,11913.67 2265.33,11913.16"/>
    </edge>
    <edge id=":1177815913_7" function="internal">
        <lane id=":1177815913_7_0" index="0" disallow="pedestrian tram rail_urban rail rail_electric rail_fast ship" speed="3.65" length="1.44" shape="2267.95,11917.29 2266.79,11916.43"/>
    </edge>
    <edge id=":1177815913_16" function="internal">
        <lane id=":1177815913_16_0" index="0" disallow="pedestrian tram rail_urban rail rail_electric rail_fast ship" speed="10.58" length="12.58" shape="2265.33,11913.16 2262.53,11910.39 2258.62,11907.96 2254.74,11906.86"/>
    </edge>
    <edge id=":1177815913_17" function="internal">
        <lane id=":1177815913_17_0" index="0" disallow="pedestrian tram rail_urban rail rail_electric rail_fast ship" speed="3.65" length="3.23" shape="2266.79,11916.43 2265.90,11916.31 2265.28,11916.96 2264.93,11918.36"/>
    </edge>
    <edge id=":1177815913_8" function="internal">
        <lane id=":1177815913_8_0" index="0" disallow="pedestrian tram rail_urban rail rail_electric rail_fast ship" speed="9.57" length="14.18" shape="2254.50,11910.05 2258.04,11910.78 2260.96,11912.41 2263.25,11914.94 2264.93,11918.36"/>
    </edge>
    <edge id=":1177815913_9" function="internal">
        <lane id=":1177815913_9_0" index="0" disallow="pedestrian tram rail_urban rail rail_electric rail_fast ship" speed="13.89" length="17.91" shape="2254.50,11910.05 2272.30,11911.94"/>
    </edge>
    <edge id=":1177815913_10" function="internal">
        <lane id=":1177815913_10_0" index="0" disallow="pedestrian tram rail_urban rail rail_electric rail_fast ship" speed="7.49" length="15.95" shape="2254.50,11910.05 2259.15,11909.75 2261.98,11908.02 2262.99,11904.86 2262.18,11900.27"/>
    </edge>
    <edge id=":1177815913_11" function="internal">
        <lane id=":1177815913_11_0" index="0" disallow="pedestrian tram rail_urban rail rail_electric rail_fast ship" speed="3.65" length="4.67" shape="2254.50,11910.05 2255.75,11909.34 2256.21,11908.57 2255.87,11907.74 2254.74,11906.86"/>
    </edge>
    <edge id=":1177815913_12" function="internal">
        <lane id=":1177815913_12_0" index="0" disallow="pedestrian tram rail_urban rail rail_electric rail_fast ship" speed="5.83" length="9.13" shape="2259.13,11901.26 2259.60,11903.89 2259.02,11905.70 2257.40,11906.69 2254.74,11906.86"/>
    </edge>
    <edge id=":1177815913_13" function="internal">
        <lane id=":1177815913_13_0" index="0" disallow="pedestrian tram rail_urban rail rail_electric rail_fast ship" speed="13.89" length="18.05" shape="2259.13,11901.26 2264.93,11918.36"/>
    </edge>
    <edge id=":1177815913_14" function="internal">
        <lane id=":1177815913_14_0" index="0" disallow="pedestrian tram rail_urban rail rail_electric rail_fast ship" speed="10.81" length="4.97" shape="2259.13,11901.26 2261.11,11904.79 2261.76,11905.45"/>
    </edge>
    <edge id=":1177815913_15" function="internal">
        <lane id=":1177815913_15_0" index="0" disallow="pedestrian tram rail_urban rail rail_electric rail_fast ship" speed="3.65" length="1.44" shape="2259.13,11901.26 2260.26,11902.16"/>
    </edge>
    <edge id=":1177815913_18" function="internal">
        <lane id=":1177815913_18_0" index="0" disallow="pedestrian tram rail_urban rail rail_electric rail_fast ship" speed="10.81" length="12.60" shape="2261.76,11905.45 2264.38,11908.08 2268.32,11910.63 2272.30,11911.94"/>
    </edge>
    <edge id=":1177815913_19" function="internal">
        <lane id=":1177815913_19_0" index="0" disallow="pedestrian tram rail_urban rail rail_electric rail_fast ship" speed="3.65" length="3.23" shape="2260.26,11902.16 2261.15,11902.29 2261.78,11901.66 2262.18,11900.27"/>
    </edge>
    <edge id=":1177816021_0" function="internal">
        <lane id=":1177816021_0_0" index="0" disallow="pedestrian bicycle tram rail_urban rail rail_electric rail_fast ship" speed="8.12" length="10.91" shape="2817.04,11801.54 2816.14,11803.81 2814.46,11805.56 2812.02,11806.80 2808.80,11807.53"/>
    </edge>
    <edge id=":1177816021_1" function="internal">
        <lane id=":1177816021_1_0" index="0" disallow="pedestrian bicycle tram rail_urban rail rail_electric rail_fast ship" speed="11.11" length="14.69" shape="2817.04,11801.54 2814.22,11815.99"/>
        <lane id=":1177816021_1_1" index="1" disallow="pedestrian bicycle tram rail_urban rail rail_electric rail_fast ship" speed="11.11" length="14.69" shape="2820.18,11802.19 2817.37,11816.58"/>
    </edge>
    <edge id=":1177816021_3" function="internal">
        <lane id=":1177816021_3_0" index="0" disallow="pedestrian bicycle tram rail_urban rail rail_electric rail_fast ship" speed="5.93" length="9.10" shape="2809.21,11810.70 2811.83,11810.73 2813.54,11811.62 2814.34,11813.37 2814.22,11815.99"/>
    </edge>
    <edge id=":1177816021_4" function="internal">
        <lane id=":1177816021_4_0" index="0" disallow="pedestrian tram rail_urban rail rail_electric rail_fast ship" speed="3.65" length="4.67" shape="2809.21,11810.70 2810.30,11809.75 2810.59,11808.91 2810.09,11808.17 2808.80,11807.53"/>
    </edge>
    <edge id=":1177816176_0" function="internal">
        <lane id=":1177816176_0_0" index="0" disallow="pedestrian tram rail_urban rail rail_electric rail_fast ship" speed="6.53" length="9.14" shape="1974.04,11981.18 1971.61,11981.91 1969.55,11981.70 1967.85,11980.55 1966.51,11978.47"/>
    </edge>
    <edge id=":1177816176_1" function="internal">
        <lane id=":1177816176_1_0" index="0" disallow="pedestrian tram rail_urban rail rail_electric rail_fast ship" speed="7.92" length="14.36" shape="1974.04,11981.18 1970.71,11983.33 1968.93,11986.01 1968.68,11989.22 1969.97,11992.96"/>
    </edge>
    <edge id=":1177816176_2" function="internal">
        <lane id=":1177816176_2_0" index="0" disallow="pedestrian tram rail_urban rail rail_electric rail_fast ship" speed="3.65" length="4.67" shape="1974.04,11981.18 1973.28,11982.41 1973.25,11983.30 1973.95,11983.86 1975.38,11984.09"/>
    </edge>
    <edge id=":1177816176_3" function="internal">
        <lane id=":1177816176_3_0" index="0" disallow="pedestrian tram rail_urban rail rail_electric rail_fast ship" speed="6.41" length="9.04" shape="1972.82,11991.50 1972.00,11989.15 1972.16,11987.12 1973.28,11985.44 1975.38,11984.09"/>
    </edge>
    <edge id=":1177816176_4" function="internal">
        <lane id=":1177816176_4_0" index="0" disallow="pedestrian tram rail_urban rail rail_electric rail_fast ship" speed="11.11" length="14.48" shape="1972.82,11991.50 1966.51,11978.47"/>
    </edge>
    <edge id=":1177816176_5" function="internal">
        <lane id=":1177816176_5_0" index="0" disallow="pedestrian tram rail_urban rail rail_electric rail_fast ship" speed="3.65" length="1.44" shape="1972.82,11991.50 1971.56,11990.80"/>
    </edge>
    <edge id=":1177816176_9" function="internal">
        <lane id=":1177816176_9_0" index="0" disallow="pedestrian tram rail_urban rail rail_electric rail_fast ship" speed="3.65" length="3.23" shape="1971.56,11990.80 1970.66,11990.81 1970.13,11991.53 1969.97,11992.96"/>
    </edge>
    <edge id=":1177816176_6" function="internal">
        <lane id=":1177816176_6_0" index="0" disallow="pedestrian tram rail_urban rail rail_electric rail_fast ship" speed="11.11" length="14.63" shape="1963.60,11979.79 1969.97,11992.96"/>
    </edge>
    <edge id=":1177816176_7" function="internal">
        <lane id=":1177816176_7_0" index="0" disallow="pedestrian tram rail_urban rail rail_electric rail_fast ship" speed="8.02" length="4.24" shape="1963.60,11979.79 1965.70,11983.07 1965.98,11983.27"/>
    </edge>
    <edge id=":1177816176_8" function="internal">
        <lane id=":1177816176_8_0" index="0" disallow="pedestrian tram rail_urban rail rail_electric rail_fast ship" speed="3.65" length="1.44" shape="1963.60,11979.79 1964.82,11980.55"/>
    </edge>
    <edge id=":1177816176_10" function="internal">
        <lane id=":1177816176_10_0" index="0" disallow="pedestrian tram rail_urban rail rail_electric rail_fast ship" speed="8.02" length="10.07" shape="1965.98,11983.27 1968.36,11984.88 1971.59,11985.22 1975.38,11984.09"/>
    </edge>
    <edge id=":1177816176_11" function="internal">
        <lane id=":1177816176_11_0" index="0" disallow="pedestrian tram rail_urban rail rail_electric rail_fast ship" speed="3.65" length="3.23" shape="1964.82,11980.55 1965.71,11980.59 1966.28,11979.89 1966.51,11978.47"/>
    </edge>
    <edge id=":1191386021_0" function="internal">
        <lane id=":1191386021_0_0" index="0" disallow="pedestrian tram rail_urban rail rail_electric rail_fast ship" speed="13.89" length="16.02" shape="3391.31,11580.58 3389.89,11584.23 3388.49,11588.09 3387.22,11591.99 3386.18,11595.75"/>
    </edge>
    <edge id=":1191386021_1" function="internal">
        <lane id=":1191386021_1_0" index="0" disallow="pedestrian tram rail_urban rail rail_electric rail_fast ship" speed="7.39" length="5.14" shape="3391.31,11580.58 3390.04,11585.56"/>
    </edge>
    <edge id=":1191386021_2" function="internal">
        <lane id=":1191386021_2_0" index="0" disallow="pedestrian tram rail_urban rail rail_electric rail_fast ship" speed="3.65" length="1.44" shape="3391.31,11580.58 3391.61,11582.00"/>
    </edge>
    <edge id=":1191386021_9" function="internal">
        <lane id=":1191386021_9_0" index="0" disallow="pedestrian tram rail_urban rail rail_electric rail_fast ship" speed="7.39" length="11.86" shape="3390.04,11585.56 3390.90,11588.81 3393.90,11590.34 3399.03,11590.14"/>
    </edge>
    <edge id=":1191386021_10" function="internal">
        <lane id=":1191386021_10_0" index="0" disallow="pedestrian tram rail_urban rail rail_electric rail_fast ship" speed="3.65" length="3.23" shape="3391.61,11582.00 3392.20,11582.66 3393.09,11582.59 3394.28,11581.77"/>
    </edge>
    <edge id=":1191386021_3" function="internal">
        <lane id=":1191386021_3_0" index="0" disallow="pedestrian tram rail_urban rail rail_electric rail_fast ship" speed="5.64" length="9.27" shape="3398.49,11586.98 3395.69,11587.09 3394.06,11586.26 3393.59,11584.49 3394.28,11581.77"/>
    </edge>
    <edge id=":1191386021_4" function="internal">
        <lane id=":1191386021_4_0" index="0" disallow="pedestrian tram rail_urban rail rail_electric rail_fast ship" speed="10.11" length="16.01" shape="3398.49,11586.98 3393.74,11588.21 3390.11,11590.09 3387.59,11592.60 3386.18,11595.75"/>
    </edge>
    <edge id=":1191386021_5" function="internal">
        <lane id=":1191386021_5_0" index="0" disallow="pedestrian tram rail_urban rail rail_electric rail_fast ship" speed="3.65" length="4.67" shape="3398.49,11586.98 3397.44,11587.97 3397.19,11588.83 3397.71,11589.55 3399.03,11590.14"/>
    </edge>
    <edge id=":1191386021_6" function="internal">
        <lane id=":1191386021_6_0" index="0" disallow="pedestrian tram rail_urban rail rail_electric rail_fast ship" speed="8.92" length="12.29" shape="3389.29,11596.51 3390.35,11594.27 3392.32,11592.46 3395.22,11591.08 3399.03,11590.14"/>
    </edge>
    <edge id=":1191386021_7" function="internal">
        <lane id=":1191386021_7_0" index="0" disallow="pedestrian tram rail_urban rail rail_electric rail_fast ship" speed="13.89" length="15.57" shape="3389.29,11596.51 3390.31,11592.81 3391.53,11589.06 3392.88,11585.35 3394.28,11581.77"/>
    </edge>
    <edge id=":1191386021_8" function="internal">
        <lane id=":1191386021_8_0" index="0" disallow="pedestrian tram rail_urban rail rail_electric rail_fast ship" speed="3.65" length="1.44" shape="3389.29,11596.51 3388.80,11595.16"/>
    </edge>
    <edge id=":1191386021_11" function="internal">
        <lane id=":1191386021_11_0" index="0" disallow="pedestrian tram rail_urban rail rail_electric rail_fast ship" speed="3.65" length="3.23" shape="3388.80,11595.16 3388.12,11594.58 3387.24,11594.78 3386.18,11595.75"/>
    </edge>
    <edge id=":1191386045_0" function="internal">
        <lane id=":1191386045_0_0" index="0" disallow="pedestrian tram rail_urban rail rail_electric rail_fast ship" speed="10.40" length="4.55" shape="3368.99,11666.36 3368.68,11667.68 3368.40,11668.57 3367.93,11669.37 3367.07,11670.39"/>
    </edge>