<?xml version="1.0" encoding="UTF-8"?>

<!-- generated on 2022-02-16 10:05:38 by Eclipse SUMO duarouter Version 1.12.0
<configuration xmlns:xsi="http://www.w3.org/2001/XMLSchema-instance" xsi:noNamespaceSchemaLocation="http://sumo.dlr.de/xsd/duarouterConfiguration.xsd">

    <input>
        <net-file value="C:\Users\91987\Sumo\2022-02-16-10-05-23\osm.net.xml"/>
        <route-files value="C:\Users\91987\Sumo\2022-02-16-10-05-23\osm.motorcycle.trips.xml"/>
    </input>

    <output>
        <output-file value="C:\Users\91987\Sumo\2022-02-16-10-05-23\osm.motorcycle.trips.xml.tmp"/>
        <write-trips value="true"/>
    </output>

    <time>
        <begin value="0"/>
        <end value="3600"/>
    </time>

    <report>
        <no-warnings value="true"/>
        <ignore-errors value="true"/>
        <no-step-log value="true"/>
    </report>

</configuration>
-->

<routes xmlns:xsi="http://www.w3.org/2001/XMLSchema-instance" xsi:noNamespaceSchemaLocation="http://sumo.dlr.de/xsd/routes_file.xsd">
    <vType id="moto_motorcycle" vClass="motorcycle"/>
    <trip id="moto0" type="moto_motorcycle" depart="0.00" departLane="best" from="105258497#1" to="-104777765#7"/>
    <trip id="moto2" type="moto_motorcycle" depart="29.88" departLane="best" from="105350837#5" to="105297369#0"/>
    <trip id="moto3" type="moto_motorcycle" depart="44.82" departLane="best" from="52085865#1" to="-105019321#9"/>
    <trip id="moto4" type="moto_motorcycle" depart="59.76" departLane="best" from="-52100424#7" to="-104777765#9"/>
    <trip id="moto5" type="moto_motorcycle" depart="74.70" departLane="best" from="-104777765#8" to="-105297402#3"/>
    <trip id="moto6" type="moto_motorcycle" depart="89.64" departLane="best" from="105258497#6" to="105019300#1"/>
    <trip id="moto7" type="moto_motorcycle" depart="104.58" departLane="best" from="-105350837#2" to="105019335#10"/>
    <trip id="moto9" type="moto_motorcycle" depart="134.46" departLane="best" from="-218973631#2" to="-105258497#9"/>
    <trip id="moto10" type="moto_motorcycle" depart="149.40" departLane="best" from="52100424#6" to="-218973631#0"/>
    <trip id="moto11" type="moto_motorcycle" depart="164.34" departLane="best" from="-105019335#11" to="-105019335#3"/>
    <trip id="moto12" type="moto_motorcycle" depart="179.29" departLane="best" from="116481985#1" to="105019335#8"/>
    <trip id="moto14" type="moto_motorcycle" depart="209.17" departLane="best" from="104789492#1" to="52101402#5"/>
    <trip id="moto15" type="moto_motorcycle" depart="224.11" departLane="best" from="-52085865#21" to="105019300#4"/>
    <trip id="moto16" type="moto_motorcycle" depart="239.05" departLane="best" from="116237632#0" to="105258492#0"/>
    <trip id="moto17" type="moto_motorcycle" depart="253.99" departLane="best" from="190892041#3" to="105019321#4"/>
    <trip id="moto18" type="moto_motorcycle" depart="268.93" departLane="best" from="105297402#4" to="-105019300#1"/>
    <trip id="moto19" type="moto_motorcycle" depart="283.87" departLane="best" from="-105350837#6" to="-116237625#0"/>
    <trip id="moto20" type="moto_motorcycle" depart="298.81" departLane="best" from="-105019321#5" to="-105350838#1"/>
    <trip id="moto22" type="moto_motorcycle" depart="328.69" departLane="best" from="105258494#3" to="-52085865#13"/>
    <trip id="moto23" type="moto_motorcycle" depart="343.63" departLane="best" from="-52085865#17" to="-105299194#1"/>
    <trip id="moto25" type="moto_motorcycle" depart="373.51" departLane="best" from="105258497#5" to="105019339#1"/>
    <trip id="moto26" type="moto_motorcycle" depart="388.45" departLane="best" from="-105297359#4" to="105350837#2"/>
    <trip id="moto27" type="moto_motorcycle" depart="403.39" departLane="best" from="-105297359#0" to="-52085865#21"/>
    <trip id="moto28" type="moto_motorcycle" depart="418.33" departLane="best" from="992291721#6" to="105258497#10"/>
    <trip id="moto29" type="moto_motorcycle" depart="433.27" departLane="best" from="105019300#7" to="105297369#4"/>
    <trip id="moto30" type="moto_motorcycle" depart="448.21" departLane="best" from="116237636#1" to="105578148#1"/>
    <trip id="moto31" type="moto_motorcycle" depart="463.15" departLane="best" from="-105350837#7" to="-104789477#2"/>
    <trip id="moto33" type="moto_motorcycle" depart="493.03" departLane="best" from="-105350817#0" to="52100423#8"/>
    <trip id="moto34" type="moto_motorcycle" depart="507.97" departLane="best" from="225198942" to="-116481985#2"/>
    <trip id="moto35" type="moto_motorcycle" depart="522.91" departLane="best" from="105258497#9" to="-52085865#9"/>
    <trip id="moto37" type="moto_motorcycle" depart="552.80" departLane="best" from="105019300#9" to="-105578139#9"/>
    <trip id="moto38" type="moto_motorcycle" depart="567.74" departLane="best" from="105019321#8" to="52085865#12"/>
    <trip id="moto39" type="moto_motorcycle" depart="582.68" departLane="best" from="-52100423#3" to="-105350837#1"/>
    <trip id="moto40" type="moto_motorcycle" depart="597.62" departLane="best" from="992291724" to="104777715#3"/>
    <trip id="moto41" type="moto_motorcycle" depart="612.56" departLane="best" from="-105019335#10" to="-105019300#1"/>
    <trip id="moto42" type="moto_motorcycle" depart="627.50" departLane="best" from="-105019339#1" to="105258492#5"/>
    <trip id="moto43" type="moto_motorcycle" depart="642.44" departLane="best" from="-105019321#1" to="-52085865#22"/>
    <trip id="moto44" type="moto_motorcycle" depart="657.38" departLane="best" from="992291723" to="104789477#1"/>
    <trip id="moto45" type="moto_motorcycle" depart="672.32" departLane="best" from="52101402#4" to="190892041#1"/>
    <trip id="moto46" type="moto_motorcycle" depart="687.26" departLane="best" from="-104777715#3" to="105350817#0"/>
    <trip id="moto47" type="moto_motorcycle" depart="702.20" departLane="best" from="105297369#2" to="104789492#2"/>
    <trip id="moto49" type="moto_motorcycle" depart="732.08" departLane="best" from="-105019339#2" to="-52101402#3"/>
    <trip id="moto50" type="moto_motorcycle" depart="747.02" departLane="best" from="-992291723" to="52100424#4"/>
    <trip id="moto51" type="moto_motorcycle" depart="761.96" departLane="best" from="225198942" to="-105578139#9"/>
    <trip id="moto52" type="moto_motorcycle" depart="776.90" departLane="best" from="103185303#0" to="-105297369#0"/>
    <trip id="moto53" type="moto_motorcycle" depart="791.84" departLane="best" from="-116237632#4" to="105258497#1"/>
    <trip id="moto54" type="moto_motorcycle" depart="806.78" departLane="best" from="105019339#1" to="-105258497#7"/>
    <trip id="moto55" type="moto_motorcycle" depart="821.72" departLane="best" from="105578139#3" to="105019203#2"/>
    <trip id="moto56" type="moto_motorcycle" depart="836.66" departLane="best" from="105578148#3" to="104789477#2"/>
    <trip id="moto57" type="moto_motorcycle" depart="851.60" departLane="best" from="-103185303#0" to="-190892041#1"/>
    <trip id="moto58" type="moto_motorcycle" depart="866.54" departLane="best" from="-104777765#3" to="52085865#9"/>
    <trip id="moto60" type="moto_motorcycle" depart="896.43" departLane="best" from="34995994#0" to="52100424#1"/>
    <trip id="moto61" type="moto_motorcycle" depart="911.37" departLane="best" from="-105019321#8" to="1029504352#1"/>
    <trip id="moto62" type="moto_motorcycle" depart="926.31" departLane="best" from="105578139#5" to="-105258492#4"/>
    <trip id="moto63" type="moto_motorcycle" depart="941.25" departLane="best" from="1029504349#1" to="105019300#3"/>
    <trip id="moto65" type="moto_motorcycle" depart="971.13" departLane="best" from="-52100424#8" to="-105350817#0"/>
    <trip id="moto66" type="moto_motorcycle" depart="986.07" departLane="best" from="105019203#0" to="105350837#2"/>
    <trip id="moto67" type="moto_motorcycle" depart="1001.01" departLane="best" from="-105299184#0" to="-116481985#1"/>
    <trip id="moto68" type="moto_motorcycle" depart="1015.95" departLane="best" from="992291723" to="105258497#7"/>
    <trip id="moto69" type="moto_motorcycle" depart="1030.89" departLane="best" from="-52101402#6" to="104777765#2"/>
    <trip id="moto70" type="moto_motorcycle" depart="1045.83" departLane="best" from="-105258492#0" to="-105350837#4"/>
    <trip id="moto71" type="moto_motorcycle" depart="1060.77" departLane="best" from="-218973631#1" to="105019335#10"/>
    <trip id="moto72" type="moto_motorcycle" depart="1075.71" departLane="best" from="-105350838#0" to="-105350837#2"/>
    <trip id="moto73" type="moto_motorcycle" depart="1090.65" departLane="best" from="-105019321#14" to="105258494#1"/>
    <trip id="moto74" type="moto_motorcycle" depart="1105.59" departLane="best" from="-105350837#7" to="52085865#17"/>
    <trip id="moto75" type="moto_motorcycle" depart="1120.53" departLane="best" from="190892041#0" to="-105019321#14"/>
    <trip id="moto76" type="moto_motorcycle" depart="1135.47" departLane="best" from="-105350865#0" to="105297359#3"/>
    <trip id="moto77" type="moto_motorcycle" depart="1150.41" departLane="best" from="-105350817#2" to="-105258494#1"/>
    <trip id="moto78" type="moto_motorcycle" depart="1165.35" departLane="best" from="1029504348#1" to="105578155#2"/>
    <trip id="moto80" type="moto_motorcycle" depart="1195.23" departLane="best" from="-105019335#4" to="-52101402#0"/>
    <trip id="moto81" type="moto_motorcycle" depart="1210.17" departLane="best" from="-52100424#8" to="1029381531#6"/>
    <trip id="moto82" type="moto_motorcycle" depart="1225.12" departLane="best" from="992291721#2" to="-105019335#4"/>
    <trip id="moto83" type="moto_motorcycle" depart="1240.06" departLane="best" from="-52100423#5" to="-218973631#1"/>
    <trip id="moto84" type="moto_motorcycle" depart="1255.00" departLane="best" from="190892041#3" to="-105578139#1"/>
    <trip id="moto85" type="moto_motorcycle" depart="1269.94" departLane="best" from="-105297369#7" to="-992291721#4"/>
    <trip id="moto87" type="moto_motorcycle" depart="1299.82" departLane="best" from="-992291721#2" to="190892041#3"/>
    <trip id="moto88" type="moto_motorcycle" depart="1314.76" departLane="best" from="105019300#11" to="-105019300#11"/>
    <trip id="moto89" type="moto_motorcycle" depart="1329.70" departLane="best" from="995157433" to="116237632#4"/>
    <trip id="moto90" type="moto_motorcycle" depart="1344.64" departLane="best" from="52101402#3" to="52085865#8"/>
    <trip id="moto91" type="moto_motorcycle" depart="1359.58" departLane="best" from="116481985#1" to="-105297359#1"/>
    <trip id="moto92" type="moto_motorcycle" depart="1374.52" departLane="best" from="1029504351#4" to="-105350817#1"/>
    <trip id="moto93" type="moto_motorcycle" depart="1389.46" departLane="best" from="-52100423#4" to="-105019300#8"/>
    <trip id="moto94" type="moto_motorcycle" depart="1404.40" departLane="best" from="-52085865#22" to="992291721#3"/>
    <trip id="moto96" type="moto_motorcycle" depart="1434.28" departLane="best" from="-995157433" to="-52100424#7"/>
    <trip id="moto97" type="moto_motorcycle" depart="1449.22" departLane="best" from="52100424#6" to="992291723"/>
    <trip id="moto98" type="moto_motorcycle" depart="1464.16" departLane="best" from="105019300#6" to="105299194#2"/>
    <trip id="moto99" type="moto_motorcycle" depart="1479.10" departLane="best" from="-105258497#9" to="-116237632#2"/>
    <trip id="moto100" type="moto_motorcycle" depart="1494.04" departLane="best" from="52101402#3" to="105019321#5"/>
    <trip id="moto101" type="moto_motorcycle" depart="1508.98" departLane="best" from="105019258" to="105350865#0"/>
    <trip id="moto102" type="moto_motorcycle" depart="1523.92" departLane="best" from="-105019300#7" to="105019321#8"/>
    <trip id="moto103" type="moto_motorcycle" depart="1538.86" departLane="best" from="103185303#1" to="116481985#4"/>
    <trip id="moto104" type="moto_motorcycle" depart="1553.80" departLane="best" from="-105258498#0" to="52100424#8"/>
    <trip id="moto105" type="moto_motorcycle" depart="1568.74" departLane="best" from="-105019321#5" to="-105297369#4"/>
    <trip id="moto106" type="moto_motorcycle" depart="1583.69" departLane="best" from="105019335#3" to="105297359#7"/>
    <trip id="moto107" type="moto_motorcycle" depart="1598.63" departLane="best" from="-105350838#3" to="-105258492#0"/>
    <trip id="moto108" type="moto_motorcycle" depart="1613.57" departLane="best" from="105019335#2" to="105258492#0"/>
    <trip id="moto109" type="moto_motorcycle" depart="1628.51" departLane="best" from="-52100424#5" to="105019321#8"/>
    <trip id="moto110" type="moto_motorcycle" depart="1643.45" departLane="best" from="-105299187" to="105299194#0"/>
    <trip id="moto111" type="moto_motorcycle" depart="1658.39" departLane="best" from="-116481985#4" to="105350865#3"/>
    <trip id="moto113" type="moto_motorcycle" depart="1688.27" departLane="best" from="995157433" to="992291723"/>
    <trip id="moto115" type="moto_motorcycle" depart="1718.15" departLane="best" from="34995994#2" to="34995994#1"/>
    <trip id="moto116" type="moto_motorcycle" depart="1733.09" departLane="best" from="-52085865#16" to="-105258498#0"/>
    <trip id="moto117" type="moto_motorcycle" depart="1748.03" departLane="best" from="116237632#3" to="105297402#4"/>
    <trip id="moto118" type="moto_motorcycle" depart="1762.97" departLane="best" from="105019339#2" to="992291721#4"/>
    <trip id="moto119" type="moto_motorcycle" depart="1777.91" departLane="best" from="105258497#8" to="-104777715#1"/>
    <trip id="moto121" type="moto_motorcycle" depart="1807.79" departLane="best" from="105297359#0" to="52100423#6"/>
    <trip id="moto122" type="moto_motorcycle" depart="1822.73" departLane="best" from="-105258494#2" to="-105019339#4"/>
    <trip id="moto123" type="moto_motorcycle" depart="1837.67" departLane="best" from="-105019339#0" to="105019300#6"/>
    <trip id="moto125" type="moto_motorcycle" depart="1867.55" departLane="best" from="105299194#1" to="-105299184#1"/>
    <trip id="moto126" type="moto_motorcycle" depart="1882.49" departLane="best" from="105258494#2" to="-105578139#9"/>
    <trip id="moto127" type="moto_motorcycle" depart="1897.43" departLane="best" from="1029504352#1" to="52085865#17"/>
    <trip id="moto128" type="moto_motorcycle" depart="1912.37" departLane="best" from="116481985#0" to="-105019335#11"/>
    <trip id="moto130" type="moto_motorcycle" depart="1942.26" departLane="best" from="-103185303#2" to="105578139#8"/>
    <trip id="moto131" type="moto_motorcycle" depart="1957.20" departLane="best" from="105258497#0" to="-105578139#8"/>
    <trip id="moto132" type="moto_motorcycle" depart="1972.14" departLane="best" from="105350838#0" to="105019300#4"/>
    <trip id="moto133" type="moto_motorcycle" depart="1987.08" departLane="best" from="-52101394" to="-104777715#2"/>
    <trip id="moto134" type="moto_motorcycle" depart="2002.02" departLane="best" from="-105019321#2" to="34995994#3"/>
    <trip id="moto135" type="moto_motorcycle" depart="2016.96" departLane="best" from="52085865#16" to="105019300#1"/>
    <trip id="moto136" type="moto_motorcycle" depart="2031.90" departLane="best" from="-105258497#5" to="-105258492#4"/>
    <trip id="moto137" type="moto_motorcycle" depart="2046.84" departLane="best" from="105578159#2" to="190892041#1"/>
    <trip id="moto138" type="moto_motorcycle" depart="2061.78" departLane="best" from="52085865#13" to="-105299194#2"/>
    <trip id="moto139" type="moto_motorcycle" depart="2076.72" departLane="best" from="-105578139#2" to="-105019335#7"/>
    <trip id="moto140" type="moto_motorcycle" depart="2091.66" departLane="best" from="105578148#4" to="34995994#4"/>
    <trip id="moto141" type="moto_motorcycle" depart="2106.60" departLane="best" from="-52100423#7" to="105258492#1"/>
    <trip id="moto142" type="moto_motorcycle" depart="2121.54" departLane="best" from="-105258497#9" to="52100418"/>
    <trip id="moto143" type="moto_motorcycle" depart="2136.48" departLane="best" from="190892041#4" to="52101404#0"/>
    <trip id="moto145" type="moto_motorcycle" depart="2166.36" departLane="best" from="-104777765#7" to="105350837#6"/>
    <trip id="moto147" type="moto_motorcycle" depart="2196.24" departLane="best" from="116237607#5" to="-116237607#1"/>
    <trip id="moto148" type="moto_motorcycle" depart="2211.18" departLane="best" from="105578155#3" to="-105019339#0"/>
    <trip id="moto149" type="moto_motorcycle" depart="2226.12" departLane="best" from="218973631#1" to="190892041#0"/>
    <trip id="moto151" type="moto_motorcycle" depart="2256.00" departLane="best" from="1029381531#1" to="-116237636#0"/>
    <trip id="moto152" type="moto_motorcycle" depart="2270.94" departLane="best" from="105578159#2" to="-105350837#6"/>
    <trip id="moto153" type="moto_motorcycle" depart="2285.89" departLane="best" from="-104777765#5" to="-105297402#0"/>
    <trip id="moto154" type="moto_motorcycle" depart="2300.83" departLane="best" from="-190892041#5" to="190892041#4"/>
    <trip id="moto156" type="moto_motorcycle" depart="2330.71" departLane="best" from="105258497#10" to="-52100423#3"/>
    <trip id="moto157" type="moto_motorcycle" depart="2345.65" departLane="best" from="992291721#0" to="104789492#2"/>
    <trip id="moto158" type="moto_motorcycle" depart="2360.59" departLane="best" from="52100423#6" to="-105019339#4"/>
    <trip id="moto159" type="moto_motorcycle" depart="2375.53" departLane="best" from="52101402#4" to="-105297369#0"/>
    <trip id="moto161" type="moto_motorcycle" depart="2405.41" departLane="best" from="-105019339#0" to="-52101402#3"/>
    <trip id="moto162" type="moto_motorcycle" depart="2420.35" departLane="best" from="105350837#1" to="-116481985#2"/>
    <trip id="moto163" type="moto_motorcycle" depart="2435.29" departLane="best" from="105019335#9" to="104777715#4"/>
    <trip id="moto164" type="moto_motorcycle" depart="2450.23" departLane="best" from="-52085865#4" to="105019321#4"/>
    <trip id="moto165" type="moto_motorcycle" depart="2465.17" departLane="best" from="-105578139#5" to="105299187"/>
    <trip id="moto166" type="moto_motorcycle" depart="2480.11" departLane="best" from="-103185303#0" to="52085865#7"/>
    <trip id="moto167" type="moto_motorcycle" depart="2495.05" departLane="best" from="104789492#2" to="105299194#2"/>
    <trip id="moto168" type="moto_motorcycle" depart="2509.99" departLane="best" from="105350838#0" to="105297359#4"/>
    <trip id="moto169" type="moto_motorcycle" depart="2524.93" departLane="best" from="-52085865#13" to="-105019321#12"/>
    <trip id="moto170" type="moto_motorcycle" depart="2539.87" departLane="best" from="105297359#0" to="-190892041#5"/>
    <trip id="moto171" type="moto_motorcycle" depart="2554.81" departLane="best" from="-116481985#2" to="116481985#1"/>
    <trip id="moto172" type="moto_motorcycle" depart="2569.75" departLane="best" from="105299194#2" to="-116237632#4"/>
    <trip id="moto173" type="moto_motorcycle" depart="2584.69" departLane="best" from="-116481985#0" to="-52100423#7"/>
    <trip id="moto174" type="moto_motorcycle" depart="2599.63" departLane="best" from="-52100423#5" to="-116237632#1"/>
    <trip id="moto175" type="moto_motorcycle" depart="2614.57" departLane="best" from="-105258492#4" to="-52100424#5"/>
    <trip id="moto176" type="moto_motorcycle" depart="2629.52" departLane="best" from="52100423#7" to="105297369#0"/>
    <trip id="moto177" type="moto_motorcycle" depart="2644.46" departLane="best" from="52085865#15" to="105019339#5"/>
    <trip id="moto178" type="moto_motorcycle" depart="2659.40" departLane="best" from="-116237632#5" to="105019300#11"/>
    <trip id="moto179" type="moto_motorcycle" depart="2674.34" departLane="best" from="-103185303#0" to="-116237616#1"/>
    <trip id="moto180" type="moto_motorcycle" depart="2689.28" departLane="best" from="-52101402#1" to="105019321#6"/>
    <trip id="moto181" type="moto_motorcycle" depart="2704.22" departLane="best" from="105258497#9" to="1029381531#5"/>
    <trip id="moto182" type="moto_motorcycle" depart="2719.16" departLane="best" from="-992291721#2" to="-105350817#1"/>
    <trip id="moto183" type="moto_motorcycle" depart="2734.10" departLane="best" from="1029504348#1" to="52085865#14"/>
    <trip id="moto184" type="moto_motorcycle" depart="2749.04" departLane="best" from="-105019321#8" to="104777765#1"/>
    <trip id="moto185" type="moto_motorcycle" depart="2763.98" departLane="best" from="105258494#1" to="-218973630"/>
    <trip id="moto187" type="moto_motorcycle" depart="2793.86" departLane="best" from="105297359#5" to="-105350837#4"/>
    <trip id="moto188" type="moto_motorcycle" depart="2808.80" departLane="best" from="-105297402#4" to="-104777765#5"/>
    <trip id="moto189" type="moto_motorcycle" depart="2823.74" departLane="best" from="-105350865#4" to="1029504350"/>
    <trip id="moto190" type="moto_motorcycle" depart="2838.68" departLane="best" from="-52100424#2" to="105258494#0"/>
    <trip id="moto191" type="moto_motorcycle" depart="2853.62" departLane="best" from="-105297402#1" to="105297402#0"/>
    <trip id="moto192" type="moto_motorcycle" depart="2868.56" departLane="best" from="1029504352#4" to="-105350865#3"/>
    <trip id="moto193" type="moto_motorcycle" depart="2883.50" departLane="best" from="105258497#9" to="-104777715#0"/>
    <trip id="moto194" type="moto_motorcycle" depart="2898.44" departLane="best" from="105350865#2" to="105578139#8"/>
    <trip id="moto195" type="moto_motorcycle" depart="2913.38" departLane="best" from="-105019335#9" to="-52100424#8"/>
    <trip id="moto196" type="moto_motorcycle" depart="2928.32" departLane="best" from="-105297359#7" to="52100424#7"/>
    <trip id="moto197" type="moto_motorcycle" depart="2943.26" departLane="best" from="104777765#2" to="-105019300#11"/>
    <trip id="moto198" type="moto_motorcycle" depart="2958.20" departLane="best" from="-105578139#2" to="116481985#1"/>
    <trip id="moto199" type="moto_motorcycle" depart="2973.15" departLane="best" from="105297359#2" to="992291721#5"/>
    <trip id="moto200" type="moto_motorcycle" depart="2988.09" departLane="best" from="105019335#3" to="52100424#11"/>
    <trip id="moto201" type="moto_motorcycle" depart="3003.03" departLane="best" from="52085865#1" to="105019339#3"/>
    <trip id="moto202" type="moto_motorcycle" depart="3017.97" departLane="best" from="105299194#1" to="104777715#0"/>
    <trip id="moto203" type="moto_motorcycle" depart="3032.91" departLane="best" from="116237632#1" to="105019300#11"/>
    <trip id="moto204" type="moto_motorcycle" depart="3047.85" departLane="best" from="52085865#12" to="105350838#2"/>
    <trip id="moto205" type="moto_motorcycle" depart="3062.79" departLane="best" from="1029504349#1" to="-105578139#7"/>
    <trip id="moto206" type="moto_motorcycle" depart="3077.73" departLane="best" from="-105578139#0" to="105258497#1"/>
    <trip id="moto207" type="moto_motorcycle" depart="3092.67" departLane="best" from="105578139#5" to="104777765#5"/>
    <trip id="moto209" type="moto_motorcycle" depart="3122.55" departLane="best" from="-105019321#4" to="-116237616#1"/>
    <trip id="moto211" type="moto_motorcycle" depart="3152.43" departLane="best" from="105019203#0" to="-105258497#0"/>
    <trip id="moto212" type="moto_motorcycle" depart="3167.37" departLane="best" from="-105350838#0" to="105297393#3"/>
    <trip id="moto213" type="moto_motorcycle" depart="3182.31" departLane="best" from="105299184#0" to="-105019321#1"/>
    <trip id="moto214" type="moto_motorcycle" depart="3197.25" departLane="best" from="-52100424#0" to="105019300#0"/>
    <trip id="moto215" type="moto_motorcycle" depart="3212.19" departLane="best" from="-52100424#2" to="-105299194#0"/>
    <trip id="moto216" type="moto_motorcycle" depart="3227.13" departLane="best" from="-52100424#6" to="52085865#16"/>
    <trip id="moto217" type="moto_motorcycle" depart="3242.07" departLane="best" from="105019321#7" to="105297402#0"/>
    <trip id="moto218" type="moto_motorcycle" depart="3257.01" departLane="best" from="116501223" to="105578139#5"/>
    <trip id="moto219" type="moto_motorcycle" depart="3271.95" departLane="best" from="-52085865#22" to="-104777715#0"/>
    <trip id="moto220" type="moto_motorcycle" depart="3286.89" departLane="best" from="116481985#4" to="52100424#4"/>
    <trip id="moto221" type="moto_motorcycle" depart="3301.83" departLane="best" from="-52100424#5" to="105350865#0"/>
    <trip id="moto222" type="moto_motorcycle" depart="3316.77" departLane="best" from="105019300#1" to="105019335#8"/>
    <trip id="moto223" type="moto_motorcycle" depart="3331.72" departLane="best" from="-105350837#2" to="-105350837#1"/>
    <trip id="moto224" type="moto_motorcycle" depart="3346.66" departLane="best" from="-52101402#5" to="-104777765#9"/>
    <trip id="moto225" type="moto_motorcycle" depart="3361.60" departLane="best" from="-218973631#0" to="105297369#1"/>
    <trip id="moto226" type="moto_motorcycle" depart="3376.54" departLane="best" from="-52100423#6" to="-105297359#0"/>
    <trip id="moto227" type="moto_motorcycle" depart="3391.48" departLane="best" from="1029381531#5" to="-105258492#4"/>
    <trip id="moto228" type="moto_motorcycle" depart="3406.42" departLane="best" from="105258492#1" to="-104777765#8"/>
    <trip id="moto229" type="moto_motorcycle" depart="3421.36" departLane="best" from="-52085865#9" to="105019321#10"/>
    <trip id="moto230" type="moto_motorcycle" depart="3436.30" departLane="best" from="-104777765#8" to="105258497#3"/>
    <trip id="moto232" type="moto_motorcycle" depart="3466.18" departLane="best" from="-105019300#11" to="-52085865#21"/>
    <trip id="moto233" type="moto_motorcycle" depart="3481.12" departLane="best" from="-105350817#0" to="-190892041#3"/>
    <trip id="moto234" type="moto_motorcycle" depart="3496.06" departLane="best" from="105350865#2" to="116237632#2"/>
    <trip id="moto235" type="moto_motorcycle" depart="3511.00" departLane="best" from="-105578139#3" to="-105019321#6"/>
    <trip id="moto236" type="moto_motorcycle" depart="3525.94" departLane="best" from="-104777765#3" to="105019203#2"/>
    <trip id="moto237" type="moto_motorcycle" depart="3540.88" departLane="best" from="105258497#6" to="105578155#0"/>
    <trip id="moto238" type="moto_motorcycle" depart="3555.82" departLane="best" from="105258497#7" to="105350865#4"/>
    <trip id="moto239" type="moto_motorcycle" depart="3570.76" departLane="best" from="52100424#11" to="-105297402#4"/>
    <trip id="moto240" type="moto_motorcycle" depart="3585.70" departLane="best" from="-104777765#3" to="-105258497#7"/>
</routes>
