<?xml version="1.0" encoding="UTF-8"?>

<!-- generated on 2022-02-16 10:05:41 by Eclipse SUMO duarouter Version 1.12.0
<configuration xmlns:xsi="http://www.w3.org/2001/XMLSchema-instance" xsi:noNamespaceSchemaLocation="http://sumo.dlr.de/xsd/duarouterConfiguration.xsd">

    <input>
        <net-file value="C:\Users\91987\Sumo\2022-02-16-10-05-23\osm.net.xml"/>
        <route-files value="C:\Users\91987\Sumo\2022-02-16-10-05-23\osm.pedestrian.trips.xml"/>
    </input>

    <output>
        <output-file value="C:\Users\91987\Sumo\2022-02-16-10-05-23\osm.pedestrian.rou.xml"/>
        <alternatives-output value="C:\Users\91987\Sumo\2022-02-16-10-05-23\osm.pedestrian.rou.alt.xml"/>
    </output>

    <time>
        <begin value="0"/>
        <end value="3600"/>
    </time>

    <report>
        <no-warnings value="true"/>
        <ignore-errors value="true"/>
        <no-step-log value="true"/>
    </report>

</configuration>
-->

<routes xmlns:xsi="http://www.w3.org/2001/XMLSchema-instance" xsi:noNamespaceSchemaLocation="http://sumo.dlr.de/xsd/routes_file.xsd">
    <vType id="ped_pedestrian" vClass="pedestrian"/>
    <person id="ped2" type="ped_pedestrian" depart="14.77">
        <walk edges="105297398#5 105297398#3 -105297398#2 -105297350 105258514#3 -105258500#2 105258517"/>
    </person>
    <person id="ped45" type="ped_pedestrian" depart="332.26">
        <walk edges="-105019287#0 -995157439 -105019305#1 -105019232#2 105019313"/>
    </person>
    <person id="ped54" type="ped_pedestrian" depart="398.72">
        <walk edges="-116481174 -116481190#1 -116481186#1 -116334761#1 116481169#0 116481170"/>
    </person>
    <person id="ped57" type="ped_pedestrian" depart="420.87">
        <walk edges="116237637#1 -116237637#0 116237622#1 -116334756#1 -116334756#0 -995157430#1 -995157430#0 116481169#1 116481169#0 -116334761#1 -116481186#1 -116481190#1 -116481190#0 -116334788#1 -116334788#2 -116334788#3 116334788#4 -116334755#3 -116334755#4 116334755#5 -116234234#3 116234234#2 116234199#1 -657456138 -657456139 116234242#3"/>
    </person>
    <person id="ped66" type="ped_pedestrian" depart="487.32">
        <walk edges="116237612#0 -539612803#2 -116334777#0 -116334786 -116334755#4 -116334755#3 116334788#4 -116334788#3 -116334788#2 116334788#1"/>
    </person>
    <person id="ped75" type="ped_pedestrian" depart="553.77">
        <walk edges="995157436#1 -995157436#0 105258501#0"/>
    </person>
    <person id="ped79" type="ped_pedestrian" depart="583.31">
        <walk edges="-105297398#5 -105297387#0 -105297387#1"/>
    </person>
    <person id="ped80" type="ped_pedestrian" depart="590.69">
        <walk edges="-105019221#0 -105019221#1 -105019221#2 105019305#0 -105019305#1 -995157439 -105019287#0 995157438 -105019266#2 105019294#1 105019318"/>
    </person>
    <person id="ped89" type="ped_pedestrian" depart="657.14">
        <walk edges="-116334756#1 -116334756#0 -995157430#1 -995157430#0 116481169#1 116481169#0 -116334761#1 -116481186#1 -116481190#1 -116481190#0 -116334788#1 -116334788#2 -116334788#3 116334788#4 -116334755#3 -116334755#4 -116334786 -116334777#0 -539612803#1 -539612803#0"/>
    </person>
    <person id="ped90" type="ped_pedestrian" depart="664.53">
        <walk edges="105297395#2 -105297395#1 105297373#1 -105297358 -105297398#2 -105297350 105258514#3"/>
    </person>
    <person id="ped97" type="ped_pedestrian" depart="716.21">
        <walk edges="-116334782#2 -116237637#0 116237622#1 -116334756#1 -116334756#0 -995157430#1 -995157430#0 116481169#1 116481169#0 -116334761#1 -116481186#1 -116481190#1 -116481190#0 -116334788#1 -116334788#2 -116334788#3 116334788#4 -116334755#3 -116334755#4 116334755#5 -116234234#3 116234234#2 -116234234#1 116234234#0"/>
    </person>
    <person id="ped98" type="ped_pedestrian" depart="723.59">
        <walk edges="105015979#1 -105015966#0"/>
    </person>
    <person id="ped100" type="ped_pedestrian" depart="738.36">
        <walk edges="539612803#1 -116334777#0 -116334786 -116334755#4 -116334755#3 116334788#4 -116334788#3 -116334788#2 -116334788#1 -116481190#0 -116481190#1 -116481186#1 -116334761#1 116481169#0 116481169#1 -995157430#0 -995157430#1 -116334756#0 116334756#1"/>
    </person>
    <person id="ped104" type="ped_pedestrian" depart="767.90">
        <walk edges="-116237615#1 -116334780#1 -995157430#0 116481169#1 116481169#0 -116334761#1 -116481186#1 -116481190#1 -116481190#0 -116334788#1 -116334788#2 -116334788#3 116334788#4 -116334755#3 -116334755#4 116334755#5 -116234234#3 116234234#2 -116234234#1 -116234225 -116234214#1 738167326"/>
    </person>
    <person id="ped106" type="ped_pedestrian" depart="782.66">
        <walk edges="-116481175 116237638#2 -116237624#1 116237623#0 -116237623#1 -116237623#3 -116237615#1 -116334780#1 -995157430#1 -116334756#0"/>
    </person>
    <person id="ped119" type="ped_pedestrian" depart="878.65">
        <walk edges="105019266#2 995157438 -105019287#0 -105019287#1 -105019233 -995157440 105019305#3"/>
    </person>
    <person id="ped122" type="ped_pedestrian" depart="900.80">
        <walk edges="-105297365#4 -105297365#3 -105297365#2 105297362 -105297356#0 -105297387#0 105297384#0"/>
    </person>
    <person id="ped130" type="ped_pedestrian" depart="959.87">
        <walk edges="116237615#0 -116334780#1 -995157430#0 116481169#1 116481169#0 -116334761#1 -116481186#1 -116481190#1 -116481190#0 -116334788#1 -116334788#2 -116334788#3 116334788#4 -116334755#3 -116334755#4 -116334786 -116334777#0 -539612803#2 -539612803#3 539612803#4 116237612#1"/>
    </person>
    <person id="ped140" type="ped_pedestrian" depart="1033.71">
        <walk edges="105297384#1 -105297384#0 -105297387#0 -105297356#0 105297362 -105297365#2 -105297365#3 -105297365#4"/>
    </person>
    <person id="ped160" type="ped_pedestrian" depart="1181.38">
        <walk edges="116234234#3 116234234#2 116234199#1 -657456138 657456139"/>
    </person>
    <person id="ped181" type="ped_pedestrian" depart="1336.43">
        <walk edges="105019287#1 -995157439 -105019305#1 105019305#0 -105019221#2 -105019221#1 -105019221#0 105019298#1 -105019298#0 -105019251#1 -105019251#2 105019251#3 104777729 -104777763#0 104777763#1"/>
    </person>
    <person id="ped186" type="ped_pedestrian" depart="1373.35">
        <walk edges="105297400#4 105297365#8 105297365#7 -105297365#6 -105297365#5 -105297365#4 -105297365#3 -105297365#2 105297362 -105297356#0 -105297387#0 105297398#3 -105297398#2 -105297350 105258514#3 -105258514#2 -105258514#1 105258514#0"/>
    </person>
    <person id="ped206" type="ped_pedestrian" depart="1521.02">
        <walk edges="105258514#2 105258514#3 -105297350 -105297398#2 105297398#3 -105297387#0 -105297356#0 105297362 -105297365#2 -105297365#3 -105297365#4 -105297365#5 -105297365#6 105297365#7 105297365#8 -105297400#4 -105297400#5 -105297397#0"/>
    </person>
    <person id="ped211" type="ped_pedestrian" depart="1557.94">
        <walk edges="-105297356#0 105297362 105297365#1"/>
    </person>
    <person id="ped214" type="ped_pedestrian" depart="1580.09">
        <walk edges="105304996#1 105305057#0"/>
    </person>
    <person id="ped237" type="ped_pedestrian" depart="1749.92">
        <walk edges="-116334755#4 -116334755#3 116334788#4 -116334788#3 -116334788#2 -116334788#1 -116481190#0 -116481190#1 -116481186#1 -116334761#1 116481169#0 116481169#1 -995157430#0 -995157430#1 -116334756#0 -116334756#1 116237622#1 116237629#2"/>
    </person>
    <person id="ped242" type="ped_pedestrian" depart="1786.84">
        <walk edges="116234208 -657456139 -657456138 116234199#1 116234234#2 -116234234#3 116334755#5 -116334755#4 -116334755#3 116334788#4 -116334788#3 -116334788#2 -116334788#1 -116481190#0 -116481190#1 -116481186#1 -116334761#1 116481169#0 116481170"/>
    </person>
    <person id="ped245" type="ped_pedestrian" depart="1808.99">
        <walk edges="-105297387#1 -105297387#0"/>
    </person>
    <person id="ped258" type="ped_pedestrian" depart="1904.97">
        <walk edges="-105305022 105019274 -105019332#1 -105019313 105019310#2 -105019310#1 -105019310#0 -105019238#0"/>
    </person>
    <person id="ped280" type="ped_pedestrian" depart="2067.41">
        <walk edges="-116334763 -116334755#4 116334755#5 -116234234#3 116234234#2 116234199#1 -116234199#0 116234203#1 -116234246"/>
    </person>
    <person id="ped302" type="ped_pedestrian" depart="2229.85">
        <walk edges="105297356#1 -105297356#0 -105297387#0 105297398#3 -105297398#2 -105297350 105258514#3 -105258500#2 -105258500#1 105258500#0"/>
    </person>
    <person id="ped313" type="ped_pedestrian" depart="2311.07">
        <walk edges="-105258519 105258518#1 -105258514#2 105258514#3 -105297350 -105297398#2 105297398#3 -105297384#0"/>
    </person>
    <person id="ped317" type="ped_pedestrian" depart="2340.61">
        <walk edges="-105297356#0 -105297387#0 105297398#3 -105297398#2 -105297398#1"/>
    </person>
    <person id="ped324" type="ped_pedestrian" depart="2392.29">
        <walk edges="-539612803#2 -116334777#0 -116334786 -116334755#4 -116334755#3 116334788#4 -116334788#3 -116334788#2 -116334788#1 -116481190#0 -116481190#1 -116481186#1 -116334761#1 116481169#0 116481169#1 -995157430#0 -995157430#1 -116334756#0 -116334756#1 116237622#1 -116237637#0 -116334782#2 -116334782#1 -116334782#0"/>
    </person>
    <person id="ped326" type="ped_pedestrian" depart="2407.06">
        <walk edges="116334780#0 -995157430#0 116481169#1 116481169#0 -116334761#1 -116481186#1 -116481190#1 -116481190#0 -116334788#1 -116334788#2 -116334788#3 116334788#4 -116334755#3 -116334755#4 116334755#5 -657456141#1 -657456141#0"/>
    </person>
    <person id="ped339" type="ped_pedestrian" depart="2503.05">
        <walk edges="-105297365#8 105297365#7 -105297365#6 -105297365#5 -105297365#4 -105297365#3 -105297365#2 -105297365#1 -105297365#0 -105297395#1 105297373#1 -105297373#0"/>
    </person>
    <person id="ped344" type="ped_pedestrian" depart="2539.96">
        <walk edges="-105297400#0 -105297400#1 -105297400#2 -105297400#3 105297365#8 105297365#7 -105297365#6 -105297365#5 -105297365#4 -105297365#3 -105297365#2 -105297365#1 -105297365#0 -105297395#1 105297373#1"/>
    </person>
    <person id="ped355" type="ped_pedestrian" depart="2621.18">
        <walk edges="105297355 -105297400#1 -105297400#2 -105297400#3 105297365#8 105297365#7 -105297365#6 -105297365#5 105297365#4"/>
    </person>
    <person id="ped357" type="ped_pedestrian" depart="2635.95">
        <walk edges="-995157439 -105019287#1 -105019233"/>
    </person>
    <person id="ped367" type="ped_pedestrian" depart="2709.79">
        <walk edges="105019251#3 -105019251#2 -105019251#1 -105019298#0 105019298#1 -105019221#0 105019310#2 -105019313 -105019332#1 105019332#2"/>
    </person>
    <person id="ped396" type="ped_pedestrian" depart="2923.91">
        <walk edges="116237612#1 539612803#4 -539612803#3 -539612803#2 -116334777#0 -116334786 116334755#5 -116234234#3 116234234#2"/>
    </person>
    <person id="ped398" type="ped_pedestrian" depart="2938.68">
        <walk edges="-116334748 -116334782#2 -116237637#0 116237629#1 -995157430#3 116334771"/>
    </person>
    <person id="ped400" type="ped_pedestrian" depart="2953.45">
        <walk edges="-105350824#0 -105350853#1 -105350830#2 -105350840#1"/>
    </person>
    <person id="ped402" type="ped_pedestrian" depart="2968.21">
        <walk edges="-995157436#0 105258495#3 -105258495#4"/>
    </person>
    <person id="ped404" type="ped_pedestrian" depart="2982.98">
        <walk edges="105015979#2 105015963#0"/>
    </person>
    <person id="ped406" type="ped_pedestrian" depart="2997.75">
        <walk edges="-105297351#0 105297376#0 105297388#0 105297390#1 -105297365#3 105297365#2"/>
    </person>
    <person id="ped409" type="ped_pedestrian" depart="3019.90">
        <walk edges="105297401#1 105297371"/>
    </person>
    <person id="ped415" type="ped_pedestrian" depart="3064.20">
        <walk edges="116234247#0 -657456138 116234199#1 116234234#2 -116234234#3 116334755#5 -116334755#4 -116334755#3 116334788#4 -116334788#3 -116334788#2 -116334788#1 -116481190#0 -116481190#1 -116481186#1 -116334761#1 116481169#0 116481169#1 -995157430#0 -995157430#1 -116334756#0 -116334756#1 116237622#1 -116237637#0 -116334782#2 -116334782#1 -116334782#0"/>
    </person>
    <person id="ped418" type="ped_pedestrian" depart="3086.35">
        <walk edges="105258503 -105258507#1 -105258501#2 -105258501#1 -105258501#0"/>
    </person>
    <person id="ped419" type="ped_pedestrian" depart="3093.74">
        <walk edges="-539612803#2 539612803#1"/>
    </person>
    <person id="ped429" type="ped_pedestrian" depart="3167.57">
        <walk edges="-105019266#1 995157438 -105019287#0 -105019287#1 -105019233 -995157440 -105019305#3 -105019332#2 105019332#1"/>
    </person>
    <person id="ped430" type="ped_pedestrian" depart="3174.95">
        <walk edges="116234246 -116234246 116234203#1 -116234199#0 116234199#1 116234234#2 -116234234#3 116334755#5 -116334786"/>
    </person>
    <person id="ped449" type="ped_pedestrian" depart="3315.24">
        <walk edges="105019224#0 -105019310#1 105019310#2 105019232#2"/>
    </person>
    <person id="ped450" type="ped_pedestrian" depart="3322.63">
        <walk edges="995157435 -105350839#1"/>
    </person>
    <person id="ped453" type="ped_pedestrian" depart="3344.78">
        <walk edges="105297351#2 105297381#0 105297381#1 105297365#7 105297365#8 -105297400#3 -105297400#2 105297401#2 105297401#1"/>
    </person>
    <person id="ped456" type="ped_pedestrian" depart="3366.93">
        <walk edges="-105350830#1 -105350830#2 -105350830#3 105350839#1"/>
    </person>
    <person id="ped459" type="ped_pedestrian" depart="3389.08">
        <walk edges="105258517 -105258500#2 105258514#3 -105297350 -105297398#2 105297398#3 -105297387#0 105297387#1"/>
    </person>
</routes>
