<?xml version="1.0" encoding="UTF-8"?>

<!-- generated on 2022-02-16 10:05:33 by Eclipse SUMO duarouter Version 1.12.0
<configuration xmlns:xsi="http://www.w3.org/2001/XMLSchema-instance" xsi:noNamespaceSchemaLocation="http://sumo.dlr.de/xsd/duarouterConfiguration.xsd">

    <input>
        <net-file value="C:\Users\91987\Sumo\2022-02-16-10-05-23\osm.net.xml"/>
        <route-files value="C:\Users\91987\Sumo\2022-02-16-10-05-23\osm.passenger.trips.xml"/>
    </input>

    <output>
        <output-file value="C:\Users\91987\Sumo\2022-02-16-10-05-23\osm.passenger.trips.xml.tmp"/>
        <write-trips value="true"/>
    </output>

    <time>
        <begin value="0"/>
        <end value="3600"/>
    </time>

    <report>
        <no-warnings value="true"/>
        <ignore-errors value="true"/>
        <no-step-log value="true"/>
    </report>

</configuration>
-->

<routes xmlns:xsi="http://www.w3.org/2001/XMLSchema-instance" xsi:noNamespaceSchemaLocation="http://sumo.dlr.de/xsd/routes_file.xsd">
    <vType id="veh_passenger" vClass="passenger"/>
    <trip id="veh0" type="veh_passenger" depart="0.00" departLane="best" from="105258497#6" to="-104777765#9"/>
    <trip id="veh2" type="veh_passenger" depart="9.96" departLane="best" from="105578139#4" to="105297402#4"/>
    <trip id="veh3" type="veh_passenger" depart="14.94" departLane="best" from="52085865#5" to="-105019335#7"/>
    <trip id="veh4" type="veh_passenger" depart="19.92" departLane="best" from="-992291721#6" to="-104789492#1"/>
    <trip id="veh5" type="veh_passenger" depart="24.90" departLane="best" from="-105578139#7" to="103185303#1"/>
    <trip id="veh6" type="veh_passenger" depart="29.88" departLane="best" from="-104789477#1" to="-105350838#2"/>
    <trip id="veh7" type="veh_passenger" depart="34.86" departLane="best" from="-105578139#9" to="105019335#6"/>
    <trip id="veh8" type="veh_passenger" depart="39.84" departLane="best" from="116237632#1" to="-104777715#1"/>
    <trip id="veh9" type="veh_passenger" depart="44.82" departLane="best" from="116237625#0" to="105350837#1"/>
    <trip id="veh10" type="veh_passenger" depart="49.80" departLane="best" from="-52100418" to="-105297369#3"/>
    <trip id="veh11" type="veh_passenger" depart="54.78" departLane="best" from="52101394" to="-52085865#6"/>
    <trip id="veh12" type="veh_passenger" depart="59.76" departLane="best" from="218973631#1" to="105019343"/>
    <trip id="veh13" type="veh_passenger" depart="64.74" departLane="best" from="116237625#1" to="105578139#6"/>
    <trip id="veh14" type="veh_passenger" depart="69.72" departLane="best" from="116481985#4" to="105258494#3"/>
    <trip id="veh15" type="veh_passenger" depart="74.70" departLane="best" from="34995994#4" to="105019321#9"/>
    <trip id="veh16" type="veh_passenger" depart="79.68" departLane="best" from="105350837#0" to="-105019300#4"/>
    <trip id="veh19" type="veh_passenger" depart="94.62" departLane="best" from="-105258492#0" to="-190892041#5"/>
    <trip id="veh20" type="veh_passenger" depart="99.60" departLane="best" from="105258497#3" to="-52100424#0"/>
    <trip id="veh21" type="veh_passenger" depart="104.58" departLane="best" from="-52100424#11" to="-105578139#0"/>
    <trip id="veh22" type="veh_passenger" depart="109.56" departLane="best" from="-116481985#4" to="52100424#2"/>
    <trip id="veh23" type="veh_passenger" depart="114.54" departLane="best" from="-105299184#1" to="105578139#5"/>
    <trip id="veh24" type="veh_passenger" depart="119.52" departLane="best" from="-105297402#1" to="-52100424#4"/>
    <trip id="veh25" type="veh_passenger" depart="124.50" departLane="best" from="992291721#6" to="105258498#2"/>
    <trip id="veh26" type="veh_passenger" depart="129.48" departLane="best" from="105019300#3" to="105299193#1"/>
    <trip id="veh27" type="veh_passenger" depart="134.46" departLane="best" from="190892041#7" to="105578155#5"/>
    <trip id="veh29" type="veh_passenger" depart="144.42" departLane="best" from="-52085865#14" to="-116481985#4"/>
    <trip id="veh30" type="veh_passenger" depart="149.40" departLane="best" from="-105578139#2" to="52100424#5"/>
    <trip id="veh31" type="veh_passenger" depart="154.38" departLane="best" from="105297359#3" to="-52101394"/>
    <trip id="veh32" type="veh_passenger" depart="159.36" departLane="best" from="52100423#6" to="1029504348#1"/>
    <trip id="veh33" type="veh_passenger" depart="164.34" departLane="best" from="105019300#7" to="-116481985#0"/>
    <trip id="veh34" type="veh_passenger" depart="169.32" departLane="best" from="105019321#8" to="52085865#9"/>
    <trip id="veh35" type="veh_passenger" depart="174.30" departLane="best" from="-52101402#1" to="-105578139#7"/>
    <trip id="veh36" type="veh_passenger" depart="179.29" departLane="best" from="992291724" to="104777715#0"/>
    <trip id="veh37" type="veh_passenger" depart="184.27" departLane="best" from="-105258494#0" to="105258497#4"/>
    <trip id="veh39" type="veh_passenger" depart="194.23" departLane="best" from="992291724" to="104789477#1"/>
    <trip id="veh41" type="veh_passenger" depart="204.19" departLane="best" from="-104777715#4" to="105578139#0"/>
    <trip id="veh42" type="veh_passenger" depart="209.17" departLane="best" from="105297402#1" to="105019203#0"/>
    <trip id="veh43" type="veh_passenger" depart="214.15" departLane="best" from="-116481985#4" to="105258498#3"/>
    <trip id="veh45" type="veh_passenger" depart="224.11" departLane="best" from="1029381531#3" to="52100424#9"/>
    <trip id="veh46" type="veh_passenger" depart="229.09" departLane="best" from="52085865#15" to="-116481985#1"/>
    <trip id="veh47" type="veh_passenger" depart="234.07" departLane="best" from="52100423#5" to="52085865#11"/>
    <trip id="veh48" type="veh_passenger" depart="239.05" departLane="best" from="-34995994#1" to="105258498#2"/>
    <trip id="veh49" type="veh_passenger" depart="244.03" departLane="best" from="105019339#3" to="-105297369#1"/>
    <trip id="veh50" type="veh_passenger" depart="249.01" departLane="best" from="105578155#2" to="105019258"/>
    <trip id="veh51" type="veh_passenger" depart="253.99" departLane="best" from="105578159#1" to="104789477#1"/>
    <trip id="veh52" type="veh_passenger" depart="258.97" departLane="best" from="-103185303#0" to="-52085865#2"/>
    <trip id="veh53" type="veh_passenger" depart="263.95" departLane="best" from="-104777765#5" to="52100424#10"/>
    <trip id="veh54" type="veh_passenger" depart="268.93" departLane="best" from="52085865#17" to="116501223"/>
    <trip id="veh55" type="veh_passenger" depart="273.91" departLane="best" from="-52085865#0" to="-105019321#11"/>
    <trip id="veh56" type="veh_passenger" depart="278.89" departLane="best" from="52085865#16" to="52100424#7"/>
    <trip id="veh57" type="veh_passenger" depart="283.87" departLane="best" from="-105019335#6" to="1029504352#2"/>
    <trip id="veh58" type="veh_passenger" depart="288.85" departLane="best" from="-105019321#6" to="105578155#4"/>
    <trip id="veh59" type="veh_passenger" depart="293.83" departLane="best" from="105578155#3" to="-105258497#7"/>
    <trip id="veh60" type="veh_passenger" depart="298.81" departLane="best" from="1029504351#0" to="105019300#6"/>
    <trip id="veh61" type="veh_passenger" depart="303.79" departLane="best" from="-116481985#3" to="52085865#13"/>
    <trip id="veh62" type="veh_passenger" depart="308.77" departLane="best" from="-992291721#6" to="-105578139#2"/>
    <trip id="veh63" type="veh_passenger" depart="313.75" departLane="best" from="104789477#1" to="105578139#6"/>
    <trip id="veh64" type="veh_passenger" depart="318.73" departLane="best" from="-105350865#0" to="-52085865#10"/>
    <trip id="veh65" type="veh_passenger" depart="323.71" departLane="best" departSpeed="max" from="1029381531#0" to="104777765#1"/>
    <trip id="veh67" type="veh_passenger" depart="333.67" departLane="best" from="-52085865#8" to="105019335#5"/>
    <trip id="veh69" type="veh_passenger" depart="343.63" departLane="best" from="-105019321#7" to="105258497#6"/>
    <trip id="veh71" type="veh_passenger" depart="353.59" departLane="best" from="34995994#3" to="-105019321#7"/>
    <trip id="veh73" type="veh_passenger" depart="363.55" departLane="best" from="-105578139#4" to="-105258498#0"/>
    <trip id="veh75" type="veh_passenger" depart="373.51" departLane="best" from="116237625#1" to="-105350837#5"/>
    <trip id="veh76" type="veh_passenger" depart="378.49" departLane="best" from="-105019339#4" to="-995157433"/>
    <trip id="veh77" type="veh_passenger" depart="383.47" departLane="best" from="-992291721#6" to="1029504351#0"/>
    <trip id="veh78" type="veh_passenger" depart="388.45" departLane="best" from="105350865#4" to="105297402#2"/>
    <trip id="veh79" type="veh_passenger" depart="393.43" departLane="best" from="992291721#5" to="-105019339#5"/>
    <trip id="veh80" type="veh_passenger" depart="398.41" departLane="best" from="-52101402#5" to="-52085865#8"/>
    <trip id="veh81" type="veh_passenger" depart="403.39" departLane="best" from="34995994#4" to="-116237632#1"/>
    <trip id="veh82" type="veh_passenger" depart="408.37" departLane="best" from="-992291721#6" to="-190892041#5"/>
    <trip id="veh83" type="veh_passenger" depart="413.35" departLane="best" from="-116237632#2" to="52100424#0"/>
    <trip id="veh84" type="veh_passenger" depart="418.33" departLane="best" departSpeed="max" from="1029381531#0" to="34995994#4"/>
    <trip id="veh85" type="veh_passenger" depart="423.31" departLane="best" from="105019300#0" to="-105019300#9"/>
    <trip id="veh86" type="veh_passenger" depart="428.29" departLane="best" from="995157433" to="190892041#3"/>
    <trip id="veh87" type="veh_passenger" depart="433.27" departLane="best" from="52101404#1" to="52100424#1"/>
    <trip id="veh88" type="veh_passenger" depart="438.25" departLane="best" from="218973631#1" to="-105297402#2"/>
    <trip id="veh89" type="veh_passenger" depart="443.23" departLane="best" from="1029504351#3" to="-105578139#3"/>
    <trip id="veh90" type="veh_passenger" depart="448.21" departLane="best" from="-52100424#5" to="992291721#5"/>
    <trip id="veh91" type="veh_passenger" depart="453.19" departLane="best" from="1029381531#4" to="-992291721#5"/>
    <trip id="veh92" type="veh_passenger" depart="458.17" departLane="best" from="52101394" to="992291723"/>
    <trip id="veh93" type="veh_passenger" depart="463.15" departLane="best" from="105019300#11" to="105350865#3"/>
    <trip id="veh94" type="veh_passenger" depart="468.13" departLane="best" from="-105297369#3" to="-225198942"/>
    <trip id="veh95" type="veh_passenger" depart="473.11" departLane="best" from="52101404#0" to="105019335#1"/>
    <trip id="veh96" type="veh_passenger" depart="478.09" departLane="best" from="104789492#0" to="105578155#0"/>
    <trip id="veh97" type="veh_passenger" depart="483.07" departLane="best" from="-105019321#11" to="105019335#3"/>
    <trip id="veh98" type="veh_passenger" depart="488.05" departLane="best" from="1029504352#4" to="225198942"/>
    <trip id="veh99" type="veh_passenger" depart="493.03" departLane="best" from="-105297369#5" to="52101402#1"/>
    <trip id="veh100" type="veh_passenger" depart="498.01" departLane="best" from="-105019335#3" to="-105350837#2"/>
    <trip id="veh101" type="veh_passenger" depart="502.99" departLane="best" from="105019335#4" to="105297402#3"/>
    <trip id="veh103" type="veh_passenger" depart="512.95" departLane="best" from="52085865#3" to="-116237625#1"/>
    <trip id="veh104" type="veh_passenger" depart="517.93" departLane="best" from="105019335#3" to="105258494#3"/>
    <trip id="veh105" type="veh_passenger" depart="522.91" departLane="best" from="-992291721#5" to="105019335#2"/>
    <trip id="veh106" type="veh_passenger" depart="527.90" departLane="best" from="104777715#3" to="52100424#2"/>
    <trip id="veh107" type="veh_passenger" depart="532.88" departLane="best" from="-116237616#0" to="-52101394"/>
    <trip id="veh108" type="veh_passenger" depart="537.86" departLane="best" from="-52085865#14" to="105578155#1"/>
    <trip id="veh109" type="veh_passenger" depart="542.84" departLane="best" from="-105019321#9" to="1029504348#1"/>
    <trip id="veh110" type="veh_passenger" depart="547.82" departLane="best" from="-105019321#9" to="-105578139#3"/>
    <trip id="veh111" type="veh_passenger" depart="552.80" departLane="best" from="-116481985#3" to="52100424#11"/>
    <trip id="veh112" type="veh_passenger" depart="557.78" departLane="best" from="-52100424#10" to="-105297369#5"/>
    <trip id="veh113" type="veh_passenger" depart="562.76" departLane="best" from="190892041#0" to="105350837#5"/>
    <trip id="veh114" type="veh_passenger" depart="567.74" departLane="best" from="105019339#5" to="992291721#6"/>
    <trip id="veh115" type="veh_passenger" depart="572.72" departLane="best" from="105297359#2" to="-104777715#2"/>
    <trip id="veh116" type="veh_passenger" depart="577.70" departLane="best" from="116237632#6" to="-34995994#1"/>
    <trip id="veh117" type="veh_passenger" depart="582.68" departLane="best" from="105297369#0" to="52100424#4"/>
    <trip id="veh118" type="veh_passenger" depart="587.66" departLane="best" from="-105258498#1" to="-105258494#3"/>
    <trip id="veh119" type="veh_passenger" depart="592.64" departLane="best" from="-105258492#4" to="105019300#8"/>
    <trip id="veh120" type="veh_passenger" depart="597.62" departLane="best" from="105350838#1" to="-105350865#2"/>
    <trip id="veh121" type="veh_passenger" depart="602.60" departLane="best" from="105258497#2" to="-116481985#1"/>
    <trip id="veh122" type="veh_passenger" depart="607.58" departLane="best" from="1029504351#4" to="52100423#3"/>
    <trip id="veh123" type="veh_passenger" depart="612.56" departLane="best" from="218973631#0" to="-105019339#1"/>
    <trip id="veh124" type="veh_passenger" depart="617.54" departLane="best" from="-992291721#6" to="-190892041#4"/>
    <trip id="veh125" type="veh_passenger" depart="622.52" departLane="best" from="-103185303#2" to="105578155#5"/>
    <trip id="veh126" type="veh_passenger" depart="627.50" departLane="best" from="105258497#4" to="-116481985#0"/>
    <trip id="veh127" type="veh_passenger" depart="632.48" departLane="best" from="105578139#8" to="105019300#7"/>
    <trip id="veh128" type="veh_passenger" depart="637.46" departLane="best" from="-992291723" to="-104777715#3"/>
    <trip id="veh129" type="veh_passenger" depart="642.44" departLane="best" from="-105019335#1" to="52085865#20"/>
    <trip id="veh130" type="veh_passenger" depart="647.42" departLane="best" from="52100423#0" to="105019300#11"/>
    <trip id="veh131" type="veh_passenger" depart="652.40" departLane="best" from="-105297359#7" to="-105258497#6"/>
    <trip id="veh132" type="veh_passenger" depart="657.38" departLane="best" from="-52085865#1" to="52100418"/>
    <trip id="veh134" type="veh_passenger" depart="667.34" departLane="best" from="52085865#9" to="-105578139#1"/>
    <trip id="veh135" type="veh_passenger" depart="672.32" departLane="best" from="-116237632#2" to="-105258492#1"/>
    <trip id="veh136" type="veh_passenger" depart="677.30" departLane="best" from="105578159#2" to="52085865#21"/>
    <trip id="veh138" type="veh_passenger" depart="687.26" departLane="best" from="-105297369#3" to="52100424#10"/>
    <trip id="veh139" type="veh_passenger" depart="692.24" departLane="best" from="361033192" to="992291721#2"/>
    <trip id="veh140" type="veh_passenger" depart="697.22" departLane="best" from="116237632#2" to="52085865#2"/>
    <trip id="veh141" type="veh_passenger" depart="702.20" departLane="best" from="-104777765#9" to="105578148#0"/>
    <trip id="veh142" type="veh_passenger" depart="707.18" departLane="best" from="-52085865#4" to="52100424#10"/>
    <trip id="veh143" type="veh_passenger" depart="712.16" departLane="best" from="116237632#2" to="-116481985#3"/>
    <trip id="veh145" type="veh_passenger" depart="722.12" departLane="best" from="52085865#12" to="34995994#2"/>
    <trip id="veh147" type="veh_passenger" depart="732.08" departLane="best" from="1029381531#6" to="-34995994#5"/>
    <trip id="veh148" type="veh_passenger" depart="737.06" departLane="best" from="-104777765#8" to="-105350837#6"/>
    <trip id="veh149" type="veh_passenger" depart="742.04" departLane="best" from="-52085865#22" to="361033192"/>
    <trip id="veh150" type="veh_passenger" depart="747.02" departLane="best" from="52101402#6" to="-190892041#5"/>
    <trip id="veh151" type="veh_passenger" depart="752.00" departLane="best" from="52100424#4" to="-105258494#3"/>
    <trip id="veh152" type="veh_passenger" depart="756.98" departLane="best" from="52101404#1" to="-105350817#0"/>
    <trip id="veh153" type="veh_passenger" depart="761.96" departLane="best" from="52101402#3" to="-116481985#2"/>
    <trip id="veh155" type="veh_passenger" depart="771.92" departLane="best" from="105350865#4" to="-52085865#12"/>
    <trip id="veh156" type="veh_passenger" depart="776.90" departLane="best" from="105019339#1" to="104777715#2"/>
    <trip id="veh157" type="veh_passenger" depart="781.88" departLane="best" from="-52100424#7" to="105019321#9"/>
    <trip id="veh158" type="veh_passenger" depart="786.86" departLane="best" from="-116237632#6" to="105350838#1"/>
    <trip id="veh159" type="veh_passenger" depart="791.84" departLane="best" from="-103185303#1" to="52100424#0"/>
    <trip id="veh160" type="veh_passenger" depart="796.82" departLane="best" from="104777765#9" to="105350865#4"/>
    <trip id="veh161" type="veh_passenger" depart="801.80" departLane="best" from="105578139#8" to="105297402#0"/>
    <trip id="veh162" type="veh_passenger" depart="806.78" departLane="best" from="105297369#1" to="-52085865#23"/>
    <trip id="veh163" type="veh_passenger" depart="811.76" departLane="best" from="-52085865#13" to="218973631#1"/>
    <trip id="veh164" type="veh_passenger" depart="816.74" departLane="best" from="105350838#2" to="-34995994#2"/>
    <trip id="veh166" type="veh_passenger" depart="826.70" departLane="best" from="-52101402#5" to="-225198942"/>
    <trip id="veh167" type="veh_passenger" depart="831.68" departLane="best" from="-105258497#7" to="-992291721#4"/>
    <trip id="veh168" type="veh_passenger" depart="836.66" departLane="best" from="52100424#4" to="105297402#4"/>
    <trip id="veh169" type="veh_passenger" depart="841.64" departLane="best" from="52100423#0" to="105258494#1"/>
    <trip id="veh170" type="veh_passenger" depart="846.62" departLane="best" from="-34995994#3" to="105019300#3"/>
    <trip id="veh171" type="veh_passenger" depart="851.60" departLane="best" from="-103185303#0" to="-218973631#0"/>
    <trip id="veh172" type="veh_passenger" depart="856.58" departLane="best" from="-995157433" to="105019335#10"/>
    <trip id="veh173" type="veh_passenger" depart="861.56" departLane="best" from="105297359#2" to="1029504350"/>
    <trip id="veh174" type="veh_passenger" depart="866.54" departLane="best" departSpeed="max" from="1029381531#0" to="-105578139#3"/>
    <trip id="veh175" type="veh_passenger" depart="871.52" departLane="best" from="1029504350" to="52100418"/>
    <trip id="veh177" type="veh_passenger" depart="881.49" departLane="best" from="-105019335#6" to="104777715#4"/>
    <trip id="veh178" type="veh_passenger" depart="886.47" departLane="best" from="105258497#10" to="-52085865#5"/>
    <trip id="veh179" type="veh_passenger" depart="891.45" departLane="best" from="116237636#0" to="105578155#1"/>
    <trip id="veh181" type="veh_passenger" depart="901.41" departLane="best" from="-105350838#3" to="-104777765#9"/>
    <trip id="veh182" type="veh_passenger" depart="906.39" departLane="best" from="-116237625#1" to="1029504351#3"/>
    <trip id="veh183" type="veh_passenger" depart="911.37" departLane="best" from="218973631#2" to="-105019321#9"/>
    <trip id="veh184" type="veh_passenger" depart="916.35" departLane="best" from="-992291721#3" to="105258497#5"/>
    <trip id="veh185" type="veh_passenger" depart="921.33" departLane="best" from="-105350838#0" to="105350837#0"/>
    <trip id="veh186" type="veh_passenger" depart="926.31" departLane="best" from="1029504352#1" to="-116237625#0"/>
    <trip id="veh187" type="veh_passenger" depart="931.29" departLane="best" from="105297359#3" to="-104777715#0"/>
    <trip id="veh188" type="veh_passenger" depart="936.27" departLane="best" from="105578148#3" to="105578155#5"/>
    <trip id="veh189" type="veh_passenger" depart="941.25" departLane="best" from="-105258492#4" to="-992291721#6"/>
    <trip id="veh190" type="veh_passenger" depart="946.23" departLane="best" from="-105299194#1" to="52101394"/>
    <trip id="veh191" type="veh_passenger" depart="951.21" departLane="best" from="104777715#0" to="-105019300#8"/>
    <trip id="veh192" type="veh_passenger" depart="956.19" departLane="best" from="-116237632#2" to="218973631#1"/>
    <trip id="veh193" type="veh_passenger" depart="961.17" departLane="best" from="1029381531#4" to="116237616#1"/>
    <trip id="veh194" type="veh_passenger" depart="966.15" departLane="best" from="105297369#3" to="992291721#6"/>
    <trip id="veh195" type="veh_passenger" depart="971.13" departLane="best" from="52085865#4" to="105258492#5"/>
    <trip id="veh196" type="veh_passenger" depart="976.11" departLane="best" from="105350838#2" to="103185303#0"/>
    <trip id="veh197" type="veh_passenger" depart="981.09" departLane="best" from="116481985#5" to="105019300#3"/>
    <trip id="veh198" type="veh_passenger" depart="986.07" departLane="best" from="52085865#8" to="105578148#3"/>
    <trip id="veh199" type="veh_passenger" depart="991.05" departLane="best" from="1029504350" to="-116237636#1"/>
    <trip id="veh200" type="veh_passenger" depart="996.03" departLane="best" from="-116237632#1" to="105258498#1"/>
    <trip id="veh201" type="veh_passenger" depart="1001.01" departLane="best" from="105578155#3" to="104777765#3"/>
    <trip id="veh202" type="veh_passenger" depart="1005.99" departLane="best" from="105258494#2" to="-190892041#1"/>
    <trip id="veh203" type="veh_passenger" depart="1010.97" departLane="best" from="-105019335#11" to="-218973631#0"/>
    <trip id="veh204" type="veh_passenger" depart="1015.95" departLane="best" from="-190892041#0" to="-52085865#16"/>
    <trip id="veh205" type="veh_passenger" depart="1020.93" departLane="best" from="104789477#2" to="-105297359#0"/>
    <trip id="veh207" type="veh_passenger" depart="1030.89" departLane="best" from="105350837#1" to="-105019321#3"/>
    <trip id="veh208" type="veh_passenger" depart="1035.87" departLane="best" from="-992291721#0" to="105019300#1"/>
    <trip id="veh209" type="veh_passenger" depart="1040.85" departLane="best" from="-992291721#4" to="-105350865#4"/>
    <trip id="veh210" type="veh_passenger" depart="1045.83" departLane="best" from="-992291721#5" to="52100423#0"/>
    <trip id="veh211" type="veh_passenger" depart="1050.81" departLane="best" from="105019321#7" to="105350837#0"/>
    <trip id="veh212" type="veh_passenger" depart="1055.79" departLane="best" from="34995994#1" to="105578155#5"/>
    <trip id="veh213" type="veh_passenger" depart="1060.77" departLane="best" from="-52100424#5" to="-104777715#0"/>
    <trip id="veh214" type="veh_passenger" depart="1065.75" departLane="best" from="-52100423#4" to="105578155#2"/>
    <trip id="veh215" type="veh_passenger" depart="1070.73" departLane="best" from="225198942" to="52100424#9"/>
    <trip id="veh216" type="veh_passenger" depart="1075.71" departLane="best" from="-992291721#5" to="105578155#0"/>
    <trip id="veh217" type="veh_passenger" depart="1080.69" departLane="best" from="105019203#0" to="105019339#5"/>
    <trip id="veh218" type="veh_passenger" depart="1085.67" departLane="best" departSpeed="max" from="1029381531#0" to="-104789492#0"/>
    <trip id="veh219" type="veh_passenger" depart="1090.65" departLane="best" from="-52085865#7" to="105299184#1"/>
    <trip id="veh220" type="veh_passenger" depart="1095.63" departLane="best" from="-52101402#6" to="-105297402#2"/>
    <trip id="veh221" type="veh_passenger" depart="1100.61" departLane="best" from="1029504348#1" to="-105258497#6"/>
    <trip id="veh222" type="veh_passenger" depart="1105.59" departLane="best" from="-104789477#2" to="105297359#0"/>
    <trip id="veh223" type="veh_passenger" depart="1110.57" departLane="best" from="-105258498#2" to="1029504349#1"/>
    <trip id="veh224" type="veh_passenger" depart="1115.55" departLane="best" from="-105578139#3" to="-52085865#20"/>
    <trip id="veh225" type="veh_passenger" depart="1120.53" departLane="best" from="105578155#1" to="-52100424#4"/>
    <trip id="veh226" type="veh_passenger" depart="1125.51" departLane="best" from="-116237632#4" to="-105019335#4"/>
    <trip id="veh227" type="veh_passenger" depart="1130.49" departLane="best" from="-104777765#5" to="105019258"/>
    <trip id="veh228" type="veh_passenger" depart="1135.47" departLane="best" from="995157433" to="-52100423#3"/>
    <trip id="veh230" type="veh_passenger" depart="1145.43" departLane="best" from="105297359#0" to="105578155#2"/>
    <trip id="veh231" type="veh_passenger" depart="1150.41" departLane="best" from="52100424#7" to="-105350838#3"/>
    <trip id="veh232" type="veh_passenger" depart="1155.39" departLane="best" from="-104777765#5" to="-105297369#1"/>
    <trip id="veh233" type="veh_passenger" depart="1160.37" departLane="best" from="-105258497#6" to="105297393#3"/>
    <trip id="veh234" type="veh_passenger" depart="1165.35" departLane="best" from="105019300#9" to="-105578139#6"/>
    <trip id="veh235" type="veh_passenger" depart="1170.33" departLane="best" from="105299194#2" to="105578155#5"/>
    <trip id="veh236" type="veh_passenger" depart="1175.31" departLane="best" from="-105297402#4" to="105258492#1"/>
    <trip id="veh237" type="veh_passenger" depart="1180.29" departLane="best" from="105578148#1" to="-105258494#3"/>
    <trip id="veh238" type="veh_passenger" depart="1185.27" departLane="best" from="116237636#0" to="52101402#5"/>
    <trip id="veh239" type="veh_passenger" depart="1190.25" departLane="best" from="-105258492#5" to="-104789477#1"/>
    <trip id="veh240" type="veh_passenger" depart="1195.23" departLane="best" from="-52085865#11" to="105297402#4"/>
    <trip id="veh241" type="veh_passenger" depart="1200.21" departLane="best" from="105350837#7" to="-105019335#10"/>
    <trip id="veh242" type="veh_passenger" depart="1205.19" departLane="best" from="105299187" to="105258497#4"/>
    <trip id="veh243" type="veh_passenger" depart="1210.17" departLane="best" from="-105258492#0" to="105578155#5"/>
    <trip id="veh244" type="veh_passenger" depart="1215.15" departLane="best" from="218973631#2" to="105019339#4"/>
    <trip id="veh245" type="veh_passenger" depart="1220.13" departLane="best" from="-105258497#2" to="992291721#5"/>
    <trip id="veh246" type="veh_passenger" depart="1225.12" departLane="best" from="-992291723" to="-52100424#10"/>
    <trip id="veh247" type="veh_passenger" depart="1230.10" departLane="best" from="1029504352#5" to="-52085865#9"/>
    <trip id="veh248" type="veh_passenger" depart="1235.08" departLane="best" from="218973631#2" to="116481985#0"/>
    <trip id="veh249" type="veh_passenger" depart="1240.06" departLane="best" from="105258497#3" to="116481985#4"/>
    <trip id="veh251" type="veh_passenger" depart="1250.02" departLane="best" from="105578139#3" to="52101402#5"/>
    <trip id="veh252" type="veh_passenger" depart="1255.00" departLane="best" from="-116501223" to="116237632#0"/>
    <trip id="veh253" type="veh_passenger" depart="1259.98" departLane="best" from="104777765#9" to="1029504352#1"/>
    <trip id="veh254" type="veh_passenger" depart="1264.96" departLane="best" departSpeed="max" from="1029381531#0" to="105578139#6"/>
    <trip id="veh255" type="veh_passenger" depart="1269.94" departLane="best" from="-116481985#5" to="225198942"/>
    <trip id="veh256" type="veh_passenger" depart="1274.92" departLane="best" from="116481985#5" to="-105019335#7"/>
    <trip id="veh257" type="veh_passenger" depart="1279.90" departLane="best" from="52085865#18" to="-116237625#0"/>
    <trip id="veh258" type="veh_passenger" depart="1284.88" departLane="best" from="1029504348#0" to="105258492#3"/>
    <trip id="veh259" type="veh_passenger" depart="1289.86" departLane="best" from="-52100424#5" to="-104789492#0"/>
    <trip id="veh261" type="veh_passenger" depart="1299.82" departLane="best" from="-52100418" to="52085865#18"/>
    <trip id="veh262" type="veh_passenger" depart="1304.80" departLane="best" from="105350817#1" to="-190892041#3"/>
    <trip id="veh263" type="veh_passenger" depart="1309.78" departLane="best" from="-104777715#3" to="52100424#7"/>
    <trip id="veh264" type="veh_passenger" depart="1314.76" departLane="best" from="-105019335#6" to="105350865#4"/>
    <trip id="veh265" type="veh_passenger" depart="1319.74" departLane="best" from="1029504351#4" to="105578155#3"/>
    <trip id="veh266" type="veh_passenger" depart="1324.72" departLane="best" from="105299187" to="105297359#2"/>
    <trip id="veh268" type="veh_passenger" depart="1334.68" departLane="best" from="-105019339#1" to="-105578139#9"/>
    <trip id="veh269" type="veh_passenger" depart="1339.66" departLane="best" from="105299193#0" to="-361033192"/>
    <trip id="veh270" type="veh_passenger" depart="1344.64" departLane="best" from="105019321#6" to="1029504351#2"/>
    <trip id="veh271" type="veh_passenger" depart="1349.62" departLane="best" from="104777765#3" to="-992291721#6"/>
    <trip id="veh272" type="veh_passenger" depart="1354.60" departLane="best" from="105578148#0" to="-52085865#23"/>
    <trip id="veh273" type="veh_passenger" depart="1359.58" departLane="best" from="105350817#2" to="-116501223"/>
    <trip id="veh274" type="veh_passenger" depart="1364.56" departLane="best" from="-116237632#3" to="-105258497#2"/>
    <trip id="veh275" type="veh_passenger" depart="1369.54" departLane="best" from="-105350837#7" to="-105258497#10"/>