<?xml version="1.0" encoding="UTF-8"?>

<!-- generated on 2022-02-16 10:05:42 by Eclipse SUMO duarouter Version 1.12.0
<configuration xmlns:xsi="http://www.w3.org/2001/XMLSchema-instance" xsi:noNamespaceSchemaLocation="http://sumo.dlr.de/xsd/duarouterConfiguration.xsd">

    <input>
        <net-file value="C:\Users\91987\Sumo\2022-02-16-10-05-23\osm.net.xml"/>
        <route-files value="C:\Users\91987\Sumo\2022-02-16-10-05-23\osm.tram.trips.xml"/>
    </input>

    <output>
        <output-file value="C:\Users\91987\Sumo\2022-02-16-10-05-23\osm.tram.trips.xml.tmp"/>
        <write-trips value="true"/>
    </output>

    <time>
        <begin value="0"/>
        <end value="3600"/>
    </time>

    <report>
        <no-warnings value="true"/>
        <ignore-errors value="true"/>
        <no-step-log value="true"/>
    </report>

</configuration>
-->

<routes xmlns:xsi="http://www.w3.org/2001/XMLSchema-instance" xsi:noNamespaceSchemaLocation="http://sumo.dlr.de/xsd/routes_file.xsd">
    <vType id="tram_tram" vClass="tram"/>
    <trip id="tram0" type="tram_tram" depart="0.00" departLane="best" departSpeed="max" from="190946436" to="205084075"/>
    <trip id="tram7" type="tram_tram" depart="1305.51" departLane="best" departSpeed="max" from="210580868#0" to="210580868#3"/>
    <trip id="tram10" type="tram_tram" depart="1865.01" departLane="best" departSpeed="max" from="190946436" to="205084075"/>
    <trip id="tram15" type="tram_tram" depart="2797.52" departLane="best" departSpeed="max" from="218969674#0" to="218969674#7"/>
    <trip id="tram17" type="tram_tram" depart="3170.52" departLane="best" departSpeed="max" from="190946436" to="205084075"/>
    <trip id="tram19" type="tram_tram" depart="3543.53" departLane="best" departSpeed="max" from="190946436" to="205084075"/>
</routes>
