<?xml version="1.0" encoding="UTF-8"?>

<!-- generated on 2022-02-16 10:05:35 by Eclipse SUMO duarouter Version 1.12.0
<configuration xmlns:xsi="http://www.w3.org/2001/XMLSchema-instance" xsi:noNamespaceSchemaLocation="http://sumo.dlr.de/xsd/duarouterConfiguration.xsd">

    <input>
        <net-file value="C:\Users\91987\Sumo\2022-02-16-10-05-23\osm.net.xml"/>
        <route-files value="C:\Users\91987\Sumo\2022-02-16-10-05-23\osm.truck.trips.xml"/>
    </input>

    <output>
        <output-file value="C:\Users\91987\Sumo\2022-02-16-10-05-23\osm.truck.trips.xml.tmp"/>
        <write-trips value="true"/>
    </output>

    <time>
        <begin value="0"/>
        <end value="3600"/>
    </time>

    <report>
        <no-warnings value="true"/>
        <ignore-errors value="true"/>
        <no-step-log value="true"/>
    </report>

</configuration>
-->

<routes xmlns:xsi="http://www.w3.org/2001/XMLSchema-instance" xsi:noNamespaceSchemaLocation="http://sumo.dlr.de/xsd/routes_file.xsd">
    <vType id="truck_truck" vClass="truck"/>
    <trip id="truck0" type="truck_truck" depart="0.00" departLane="best" from="105258497#10" to="-104777765#7"/>
    <trip id="truck2" type="truck_truck" depart="14.94" departLane="best" from="105350837#7" to="105297369#2"/>
    <trip id="truck3" type="truck_truck" depart="22.41" departLane="best" from="52085865#0" to="-105019321#9"/>
    <trip id="truck4" type="truck_truck" depart="29.88" departLane="best" from="-105350837#2" to="104777715#2"/>
    <trip id="truck5" type="truck_truck" depart="37.35" departLane="best" from="-104777765#8" to="-105297402#4"/>
    <trip id="truck7" type="truck_truck" depart="52.29" departLane="best" from="52100424#6" to="-218973631#1"/>
    <trip id="truck8" type="truck_truck" depart="59.76" departLane="best" from="116481985#0" to="105019339#0"/>
    <trip id="truck10" type="truck_truck" depart="74.70" departLane="best" from="-52085865#3" to="105019300#7"/>
    <trip id="truck11" type="truck_truck" depart="82.17" departLane="best" from="116237625#1" to="105258492#2"/>
    <trip id="truck12" type="truck_truck" depart="89.64" departLane="best" from="105299184#0" to="-105019300#1"/>
    <trip id="truck13" type="truck_truck" depart="97.11" departLane="best" from="-105019321#5" to="-105350838#1"/>
    <trip id="truck15" type="truck_truck" depart="112.05" departLane="best" from="105258497#0" to="-52085865#14"/>
    <trip id="truck16" type="truck_truck" depart="119.52" departLane="best" from="-52085865#2" to="-105299194#2"/>
    <trip id="truck17" type="truck_truck" depart="126.99" departLane="best" from="-105297359#5" to="105350837#4"/>
    <trip id="truck18" type="truck_truck" depart="134.46" departLane="best" from="-105297359#1" to="-52085865#22"/>
    <trip id="truck19" type="truck_truck" depart="141.93" departLane="best" from="992291721#5" to="105258497#3"/>
    <trip id="truck20" type="truck_truck" depart="149.40" departLane="best" from="105019300#7" to="105297369#6"/>
    <trip id="truck21" type="truck_truck" depart="156.87" departLane="best" from="-105350838#0" to="-104789477#2"/>
    <trip id="truck22" type="truck_truck" depart="164.34" departLane="best" from="105258498#0" to="-52100418"/>
    <trip id="truck26" type="truck_truck" depart="194.23" departLane="best" from="-105019339#2" to="105258494#1"/>
    <trip id="truck27" type="truck_truck" depart="201.70" departLane="best" departSpeed="max" from="105578159#0" to="-52100424#8"/>
    <trip id="truck28" type="truck_truck" depart="209.17" departLane="best" from="-105019321#1" to="-52085865#23"/>
    <trip id="truck29" type="truck_truck" depart="216.64" departLane="best" from="52101402#4" to="190892041#1"/>
    <trip id="truck30" type="truck_truck" depart="224.11" departLane="best" from="-104777715#3" to="105350817#2"/>
    <trip id="truck31" type="truck_truck" depart="231.58" departLane="best" from="105297369#3" to="105019203#2"/>
    <trip id="truck32" type="truck_truck" depart="239.05" departLane="best" departSpeed="max" from="1029381531#0" to="52100424#4"/>
    <trip id="truck33" type="truck_truck" depart="246.52" departLane="best" from="52085865#20" to="218973631#0"/>
    <trip id="truck34" type="truck_truck" depart="253.99" departLane="best" from="-116237632#5" to="105258497#2"/>
    <trip id="truck35" type="truck_truck" depart="261.46" departLane="best" from="105578139#5" to="105019258"/>
    <trip id="truck36" type="truck_truck" depart="268.93" departLane="best" from="105578155#0" to="104789492#0"/>
    <trip id="truck37" type="truck_truck" depart="276.40" departLane="best" from="-103185303#0" to="-190892041#3"/>
    <trip id="truck38" type="truck_truck" depart="283.87" departLane="best" from="-104777765#3" to="52085865#9"/>
    <trip id="truck39" type="truck_truck" depart="291.34" departLane="best" from="34995994#0" to="116237632#1"/>
    <trip id="truck40" type="truck_truck" depart="298.81" departLane="best" from="-116481985#1" to="-105019300#8"/>
    <trip id="truck41" type="truck_truck" depart="306.28" departLane="best" from="225198942" to="52100424#1"/>
    <trip id="truck42" type="truck_truck" depart="313.75" departLane="best" from="-105019321#9" to="1029504352#2"/>
    <trip id="truck43" type="truck_truck" depart="321.22" departLane="best" from="-105019321#12" to="105578139#5"/>
    <trip id="truck44" type="truck_truck" depart="328.69" departLane="best" from="105578139#7" to="-105258492#5"/>
    <trip id="truck45" type="truck_truck" depart="336.16" departLane="best" from="1029504349#1" to="105019300#4"/>
    <trip id="truck46" type="truck_truck" depart="343.63" departLane="best" from="-52101394" to="-105350817#0"/>
    <trip id="truck47" type="truck_truck" depart="351.10" departLane="best" from="105019203#0" to="105350837#4"/>
    <trip id="truck48" type="truck_truck" depart="358.57" departLane="best" from="-105258492#1" to="-105350837#5"/>
    <trip id="truck49" type="truck_truck" depart="366.04" departLane="best" from="-225198942" to="105019335#11"/>
    <trip id="truck50" type="truck_truck" depart="373.51" departLane="best" from="-105019321#14" to="105258494#3"/>
    <trip id="truck51" type="truck_truck" depart="380.98" departLane="best" from="-105350838#0" to="52085865#16"/>
    <trip id="truck52" type="truck_truck" depart="388.45" departLane="best" from="190892041#0" to="-105019321#14"/>
    <trip id="truck53" type="truck_truck" depart="395.92" departLane="best" from="-105350865#2" to="105297359#5"/>
    <trip id="truck54" type="truck_truck" depart="403.39" departLane="best" from="-105350837#0" to="-105258494#1"/>
    <trip id="truck55" type="truck_truck" depart="410.86" departLane="best" from="52100423#3" to="105019321#3"/>
    <trip id="truck56" type="truck_truck" depart="418.33" departLane="best" from="1029504348#1" to="105578155#5"/>
    <trip id="truck57" type="truck_truck" depart="425.80" departLane="best" from="-52101394" to="1029504348#0"/>
    <trip id="truck58" type="truck_truck" depart="433.27" departLane="best" from="105350837#2" to="105297369#0"/>
    <trip id="truck59" type="truck_truck" depart="440.74" departLane="best" from="-105297402#0" to="-992291721#6"/>
    <trip id="truck61" type="truck_truck" depart="455.68" departLane="best" from="-105578139#3" to="52085865#6"/>
    <trip id="truck62" type="truck_truck" depart="463.15" departLane="best" from="-992291721#5" to="190892041#1"/>
    <trip id="truck63" type="truck_truck" depart="470.62" departLane="best" from="116481985#0" to="-105297359#1"/>
    <trip id="truck64" type="truck_truck" depart="478.09" departLane="best" from="-52100423#6" to="-105019300#8"/>
    <trip id="truck65" type="truck_truck" depart="485.56" departLane="best" from="-52085865#3" to="992291721#3"/>
    <trip id="truck67" type="truck_truck" depart="500.50" departLane="best" departSpeed="max" from="1029381531#0" to="-52100424#8"/>
    <trip id="truck68" type="truck_truck" depart="507.97" departLane="best" from="-105258498#0" to="-116237632#3"/>
    <trip id="truck69" type="truck_truck" depart="515.44" departLane="best" from="-105019321#6" to="-105297369#5"/>
    <trip id="truck70" type="truck_truck" depart="522.91" departLane="best" from="105019335#3" to="105297369#1"/>
    <trip id="truck71" type="truck_truck" depart="530.39" departLane="best" from="-105350865#0" to="-105258492#0"/>
    <trip id="truck72" type="truck_truck" depart="537.86" departLane="best" from="361033192" to="-105578139#0"/>
    <trip id="truck73" type="truck_truck" depart="545.33" departLane="best" from="104777765#5" to="52100423#3"/>
    <trip id="truck74" type="truck_truck" depart="552.80" departLane="best" from="-105350865#2" to="-52100418"/>
    <trip id="truck75" type="truck_truck" depart="560.27" departLane="best" from="105297359#5" to="-116237632#5"/>
    <trip id="truck76" type="truck_truck" depart="567.74" departLane="best" from="-116501223" to="105578139#0"/>
    <trip id="truck78" type="truck_truck" depart="582.68" departLane="best" from="995157433" to="992291723"/>
    <trip id="truck79" type="truck_truck" depart="590.15" departLane="best" from="-105019321#2" to="-105350817#1"/>
    <trip id="truck80" type="truck_truck" depart="597.62" departLane="best" from="-52085865#18" to="-105258498#1"/>
    <trip id="truck81" type="truck_truck" depart="605.09" departLane="best" from="116237632#2" to="105299184#1"/>
    <trip id="truck82" type="truck_truck" depart="612.56" departLane="best" from="105019339#3" to="992291721#4"/>
    <trip id="truck84" type="truck_truck" depart="627.50" departLane="best" from="105297359#1" to="52100423#6"/>
    <trip id="truck85" type="truck_truck" depart="634.97" departLane="best" from="-105258494#3" to="-105019339#4"/>
    <trip id="truck88" type="truck_truck" depart="657.38" departLane="best" from="1029504352#1" to="52085865#16"/>
    <trip id="truck91" type="truck_truck" depart="679.79" departLane="best" from="-105019321#3" to="34995994#3"/>
    <trip id="truck92" type="truck_truck" depart="687.26" departLane="best" from="52085865#15" to="105019300#11"/>
    <trip id="truck93" type="truck_truck" depart="694.73" departLane="best" from="116237632#2" to="105019321#9"/>
    <trip id="truck94" type="truck_truck" depart="702.20" departLane="best" from="-116481985#1" to="52085865#13"/>
    <trip id="truck95" type="truck_truck" depart="709.67" departLane="best" from="105578159#1" to="190892041#1"/>
    <trip id="truck96" type="truck_truck" depart="717.14" departLane="best" from="52085865#12" to="-105299194#2"/>
    <trip id="truck97" type="truck_truck" depart="724.61" departLane="best" from="105578155#1" to="34995994#3"/>
    <trip id="truck98" type="truck_truck" depart="732.08" departLane="best" from="190892041#4" to="52101404#0"/>
    <trip id="truck100" type="truck_truck" depart="747.02" departLane="best" from="-104777765#7" to="105350838#0"/>
    <trip id="truck102" type="truck_truck" depart="761.96" departLane="best" departSpeed="max" from="105578159#0" to="-105019339#0"/>
    <trip id="truck104" type="truck_truck" depart="776.90" departLane="best" from="1029381531#1" to="-116237636#1"/>
    <trip id="truck105" type="truck_truck" depart="784.37" departLane="best" from="-104777765#5" to="-105297402#1"/>
    <trip id="truck107" type="truck_truck" depart="799.31" departLane="best" from="105258497#2" to="-52100423#4"/>
    <trip id="truck108" type="truck_truck" depart="806.78" departLane="best" from="52100423#6" to="-105019339#4"/>
    <trip id="truck110" type="truck_truck" depart="821.72" departLane="best" from="105350837#2" to="-116481985#3"/>
    <trip id="truck111" type="truck_truck" depart="829.19" departLane="best" from="-103185303#0" to="52085865#7"/>
    <trip id="truck112" type="truck_truck" depart="836.66" departLane="best" from="105019203#0" to="105350817#1"/>
    <trip id="truck113" type="truck_truck" depart="844.13" departLane="best" from="105350838#2" to="105297359#6"/>
    <trip id="truck114" type="truck_truck" depart="851.60" departLane="best" from="105297359#1" to="-190892041#6"/>
    <trip id="truck115" type="truck_truck" depart="859.07" departLane="best" from="-116481985#2" to="-52100424#1"/>
    <trip id="truck116" type="truck_truck" depart="866.54" departLane="best" from="52100423#6" to="105297369#2"/>
    <trip id="truck117" type="truck_truck" depart="874.02" departLane="best" from="52085865#15" to="105258492#0"/>
    <trip id="truck118" type="truck_truck" depart="881.49" departLane="best" from="-116237636#0" to="105019300#3"/>
    <trip id="truck119" type="truck_truck" depart="888.96" departLane="best" from="-103185303#0" to="-116237616#2"/>
    <trip id="truck120" type="truck_truck" depart="896.43" departLane="best" from="-992291721#4" to="-105350817#2"/>
    <trip id="truck121" type="truck_truck" depart="903.90" departLane="best" from="1029504348#1" to="52085865#14"/>
    <trip id="truck122" type="truck_truck" depart="911.37" departLane="best" from="105578159#1" to="-105297359#3"/>
    <trip id="truck123" type="truck_truck" depart="918.84" departLane="best" from="105258494#2" to="-218973631#0"/>
    <trip id="truck125" type="truck_truck" depart="933.78" departLane="best" from="105297359#6" to="-105350837#5"/>
    <trip id="truck126" type="truck_truck" depart="941.25" departLane="best" from="-105299184#0" to="-104777765#5"/>
    <trip id="truck127" type="truck_truck" depart="948.72" departLane="best" from="-105578139#1" to="1029504351#1"/>
    <trip id="truck128" type="truck_truck" depart="956.19" departLane="best" from="116481985#1" to="-105019321#16"/>
    <trip id="truck129" type="truck_truck" depart="963.66" departLane="best" from="105258498#0" to="-104777715#0"/>
    <trip id="truck130" type="truck_truck" depart="971.13" departLane="best" from="105350865#3" to="105578148#0"/>
    <trip id="truck131" type="truck_truck" depart="978.60" departLane="best" from="-105578139#3" to="116481985#1"/>
    <trip id="truck133" type="truck_truck" depart="993.54" departLane="best" from="105297359#3" to="992291721#5"/>
    <trip id="truck134" type="truck_truck" depart="1001.01" departLane="best" from="52085865#0" to="105019339#5"/>
    <trip id="truck135" type="truck_truck" depart="1008.48" departLane="best" from="105350817#0" to="104777715#2"/>
    <trip id="truck136" type="truck_truck" depart="1015.95" departLane="best" from="116237632#0" to="105019300#3"/>
    <trip id="truck137" type="truck_truck" depart="1023.42" departLane="best" from="52085865#11" to="105350865#0"/>
    <trip id="truck138" type="truck_truck" depart="1030.89" departLane="best" from="-105578139#2" to="105258497#2"/>
    <trip id="truck139" type="truck_truck" depart="1038.36" departLane="best" from="105578139#7" to="104777765#7"/>
    <trip id="truck141" type="truck_truck" depart="1053.30" departLane="best" from="-105019321#4" to="-116237616#2"/>
    <trip id="truck142" type="truck_truck" depart="1060.77" departLane="best" from="105019203#2" to="-105258497#1"/>
    <trip id="truck143" type="truck_truck" depart="1068.24" departLane="best" from="105299184#1" to="-105019321#1"/>
    <trip id="truck144" type="truck_truck" depart="1075.71" departLane="best" from="-52100424#9" to="52085865#16"/>
    <trip id="truck145" type="truck_truck" depart="1083.18" departLane="best" from="105019321#8" to="105297402#2"/>
    <trip id="truck146" type="truck_truck" depart="1090.65" departLane="best" from="-52085865#0" to="105578139#1"/>
    <trip id="truck147" type="truck_truck" depart="1098.12" departLane="best" from="116481985#3" to="52100424#4"/>
    <trip id="truck148" type="truck_truck" depart="1105.59" departLane="best" from="1029381531#5" to="-105258492#4"/>
    <trip id="truck149" type="truck_truck" depart="1113.06" departLane="best" from="-52100423#0" to="105019321#12"/>
    <trip id="truck150" type="truck_truck" depart="1120.53" departLane="best" from="-104777765#8" to="105258497#5"/>
    <trip id="truck151" type="truck_truck" depart="1128.00" departLane="best" from="-105019300#11" to="-52085865#22"/>
    <trip id="truck152" type="truck_truck" depart="1135.47" departLane="best" from="105578139#4" to="-52085865#22"/>
    <trip id="truck153" type="truck_truck" depart="1142.94" departLane="best" from="-105578139#5" to="-105019321#6"/>
    <trip id="truck154" type="truck_truck" depart="1150.41" departLane="best" from="995157433" to="-34995994#4"/>
    <trip id="truck155" type="truck_truck" depart="1157.88" departLane="best" from="105258497#7" to="105578155#3"/>
    <trip id="truck156" type="truck_truck" depart="1165.35" departLane="best" from="105258497#8" to="105578139#1"/>
    <trip id="truck157" type="truck_truck" depart="1172.82" departLane="best" from="-104777765#3" to="-105258497#8"/>
    <trip id="truck158" type="truck_truck" depart="1180.29" departLane="best" from="105019321#1" to="-105350837#1"/>
    <trip id="truck159" type="truck_truck" depart="1187.76" departLane="best" from="-105297359#3" to="105019339#2"/>
    <trip id="truck161" type="truck_truck" depart="1202.70" departLane="best" from="-116481985#3" to="105297369#2"/>
    <trip id="truck162" type="truck_truck" depart="1210.17" departLane="best" from="52100424#6" to="-52100423#0"/>
    <trip id="truck163" type="truck_truck" depart="1217.64" departLane="best" from="105299194#0" to="-105019321#3"/>
    <trip id="truck164" type="truck_truck" depart="1225.12" departLane="best" from="105297393#1" to="105258494#1"/>
    <trip id="truck165" type="truck_truck" depart="1232.59" departLane="best" from="116481985#1" to="105019335#8"/>
    <trip id="truck166" type="truck_truck" depart="1240.06" departLane="best" from="105578155#2" to="-34995994#3"/>
    <trip id="truck167" type="truck_truck" depart="1247.53" departLane="best" from="104777715#0" to="-225198942"/>
    <trip id="truck168" type="truck_truck" depart="1255.00" departLane="best" from="105258497#0" to="116237632#0"/>
    <trip id="truck169" type="truck_truck" depart="1262.47" departLane="best" from="105299187" to="-52101402#5"/>
    <trip id="truck170" type="truck_truck" depart="1269.94" departLane="best" from="105350837#5" to="52101402#0"/>
    <trip id="truck171" type="truck_truck" depart="1277.41" departLane="best" from="104789492#2" to="1029504352#1"/>
    <trip id="truck173" type="truck_truck" depart="1292.35" departLane="best" from="116237632#0" to="-105019321#9"/>
    <trip id="truck174" type="truck_truck" depart="1299.82" departLane="best" from="34995994#1" to="-105350865#4"/>
    <trip id="truck175" type="truck_truck" depart="1307.29" departLane="best" from="-52085865#3" to="-104777765#9"/>
    <trip id="truck177" type="truck_truck" depart="1322.23" departLane="best" from="-104777715#2" to="52100424#10"/>
    <trip id="truck178" type="truck_truck" depart="1329.70" departLane="best" from="-105019321#9" to="105350817#2"/>
    <trip id="truck179" type="truck_truck" depart="1337.17" departLane="best" from="1029504352#2" to="105578155#5"/>
    <trip id="truck180" type="truck_truck" depart="1344.64" departLane="best" from="105019321#6" to="1029504351#0"/>
    <trip id="truck181" type="truck_truck" depart="1352.11" departLane="best" from="104789477#1" to="-52100424#9"/>
    <trip id="truck183" type="truck_truck" depart="1367.05" departLane="best" from="-105578139#4" to="-105258492#0"/>
    <trip id="truck184" type="truck_truck" depart="1374.52" departLane="best" from="104789492#1" to="105578139#6"/>
    <trip id="truck185" type="truck_truck" depart="1381.99" departLane="best" from="-105297369#5" to="-105350837#0"/>
    <trip id="truck186" type="truck_truck" depart="1389.46" departLane="best" from="1029504351#3" to="105350837#1"/>
    <trip id="truck187" type="truck_truck" depart="1396.93" departLane="best" from="52101404#0" to="104777765#9"/>
    <trip id="truck188" type="truck_truck" depart="1404.40" departLane="best" from="-116237616#2" to="-105019335#6"/>
    <trip id="truck189" type="truck_truck" depart="1411.87" departLane="best" from="-105297402#2" to="-105350837#6"/>
    <trip id="truck190" type="truck_truck" depart="1419.34" departLane="best" from="-105297369#2" to="-104777765#0"/>
    <trip id="truck192" type="truck_truck" depart="1434.28" departLane="best" from="218973631#0" to="105019321#4"/>
    <trip id="truck193" type="truck_truck" depart="1441.75" departLane="best" from="1029381531#6" to="-992291721#0"/>
    <trip id="truck194" type="truck_truck" depart="1449.22" departLane="best" from="-105297369#5" to="-105019300#3"/>
    <trip id="truck195" type="truck_truck" depart="1456.69" departLane="best" from="-105019300#4" to="-105258497#6"/>
    <trip id="truck196" type="truck_truck" depart="1464.16" departLane="best" from="105019321#1" to="-116237636#0"/>
    <trip id="truck197" type="truck_truck" depart="1471.63" departLane="best" departSpeed="max" from="105578159#0" to="-105350837#5"/>
    <trip id="truck198" type="truck_truck" depart="1479.10" departLane="best" from="-992291721#5" to="190892041#1"/>
    <trip id="truck199" type="truck_truck" depart="1486.57" departLane="best" from="992291721#6" to="-116237636#1"/>
    <trip id="truck200" type="truck_truck" depart="1494.04" departLane="best" from="-105297359#7" to="-105019321#2"/>
    <trip id="truck201" type="truck_truck" depart="1501.51" departLane="best" from="-103185303#1" to="-992291721#7"/>
    <trip id="truck202" type="truck_truck" depart="1508.98" departLane="best" from="105019335#3" to="-116237632#0"/>
    <trip id="truck203" type="truck_truck" depart="1516.45" departLane="best" from="105297402#4" to="-995157433"/>
    <trip id="truck204" type="truck_truck" depart="1523.92" departLane="best" from="105297369#6" to="52085865#6"/>
    <trip id="truck205" type="truck_truck" depart="1531.39" departLane="best" departSpeed="max" from="105578159#0" to="105258492#5"/>
    <trip id="truck206" type="truck_truck" depart="1538.86" departLane="best" from="105258498#3" to="52100423#3"/>
    <trip id="truck207" type="truck_truck" depart="1546.33" departLane="best" from="105258497#6" to="52085865#18"/>
    <trip id="truck208" type="truck_truck" depart="1553.80" departLane="best" from="116237625#0" to="-105019321#14"/>
    <trip id="truck210" type="truck_truck" depart="1568.74" departLane="best" from="105350865#2" to="105019321#2"/>
    <trip id="truck211" type="truck_truck" depart="1576.22" departLane="best" from="-116237632#0" to="-105258492#3"/>
    <trip id="truck212" type="truck_truck" depart="1583.69" departLane="best" from="1029504352#4" to="-105019321#5"/>
    <trip id="truck213" type="truck_truck" depart="1591.16" departLane="best" from="116237632#3" to="105019321#5"/>
    <trip id="truck215" type="truck_truck" depart="1606.10" departLane="best" from="-105019203#2" to="105578139#2"/>
    <trip id="truck216" type="truck_truck" depart="1613.57" departLane="best" from="52085865#22" to="-105297369#2"/>
    <trip id="truck217" type="truck_truck" depart="1621.04" departLane="best" from="105019321#9" to="105258497#1"/>
    <trip id="truck218" type="truck_truck" depart="1628.51" departLane="best" from="-34995994#5" to="-218973630"/>
    <trip id="truck219" type="truck_truck" depart="1635.98" departLane="best" from="-190892041#7" to="105297402#1"/>
    <trip id="truck220" type="truck_truck" depart="1643.45" departLane="best" from="-116237632#0" to="52100424#0"/>
    <trip id="truck222" type="truck_truck" depart="1658.39" departLane="best" departSpeed="max" from="1029381531#0" to="-116481985#3"/>
    <trip id="truck223" type="truck_truck" depart="1665.86" departLane="best" from="-190892041#4" to="52101402#3"/>
    <trip id="truck224" type="truck_truck" depart="1673.33" departLane="best" from="-105297369#7" to="-52085865#12"/>
    <trip id="truck225" type="truck_truck" depart="1680.80" departLane="best" from="105578139#1" to="105258494#0"/>
    <trip id="truck226" type="truck_truck" depart="1688.27" departLane="best" from="105578139#3" to="-105299187"/>
    <trip id="truck227" type="truck_truck" depart="1695.74" departLane="best" from="105019300#11" to="52085865#8"/>
    <trip id="truck228" type="truck_truck" depart="1703.21" departLane="best" from="-992291721#2" to="105297402#3"/>
    <trip id="truck229" type="truck_truck" depart="1710.68" departLane="best" from="1029381531#1" to="-105019343"/>
    <trip id="truck230" type="truck_truck" depart="1718.15" departLane="best" from="116237632#1" to="103185303#1"/>
    <trip id="truck231" type="truck_truck" depart="1725.62" departLane="best" from="105299194#1" to="104777715#4"/>
    <trip id="truck234" type="truck_truck" depart="1748.03" departLane="best" from="105019300#3" to="-52085865#4"/>
    <trip id="truck235" type="truck_truck" depart="1755.50" departLane="best" from="34995994#0" to="190892041#4"/>
    <trip id="truck237" type="truck_truck" depart="1770.44" departLane="best" from="-52100424#6" to="52100423#3"/>
    <trip id="truck238" type="truck_truck" depart="1777.91" departLane="best" from="104777715#1" to="116237616#0"/>
    <trip id="truck239" type="truck_truck" depart="1785.38" departLane="best" from="105019203#0" to="-34995994#2"/>
    <trip id="truck240" type="truck_truck" depart="1792.85" departLane="best" departSpeed="max" from="1029381531#0" to="-190892041#0"/>
    <trip id="truck241" type="truck_truck" depart="1800.32" departLane="best" from="105019321#16" to="-105350838#2"/>
    <trip id="truck243" type="truck_truck" depart="1815.26" departLane="best" from="105297359#1" to="116237616#0"/>
    <trip id="truck245" type="truck_truck" depart="1830.20" departLane="best" from="218973631#1" to="-992291721#0"/>
    <trip id="truck247" type="truck_truck" depart="1845.14" departLane="best" from="1029381531#6" to="52101402#3"/>
    <trip id="truck248" type="truck_truck" depart="1852.61" departLane="best" from="105258497#7" to="116481985#3"/>
    <trip id="truck249" type="truck_truck" depart="1860.08" departLane="best" from="-52085865#3" to="-116481985#4"/>
    <trip id="truck250" type="truck_truck" depart="1867.55" departLane="best" from="105299194#2" to="105578139#4"/>
    <trip id="truck251" type="truck_truck" depart="1875.02" departLane="best" from="218973631#0" to="-104789492#1"/>
    <trip id="truck252" type="truck_truck" depart="1882.49" departLane="best" from="-105019321#12" to="105258494#3"/>
    <trip id="truck253" type="truck_truck" depart="1889.96" departLane="best" from="105350865#1" to="-52101402#4"/>
    <trip id="truck254" type="truck_truck" depart="1897.43" departLane="best" from="218973631#0" to="-992291721#3"/>
    <trip id="truck255" type="truck_truck" depart="1904.90" departLane="best" from="105297393#3" to="52085865#15"/>
    <trip id="truck257" type="truck_truck" depart="1919.84" departLane="best" from="-116237632#2" to="-52085865#20"/>
    <trip id="truck258" type="truck_truck" depart="1927.32" departLane="best" from="-105258497#4" to="104789492#1"/>
    <trip id="truck259" type="truck_truck" depart="1934.79" departLane="best" from="105019321#10" to="105578155#5"/>
    <trip id="truck260" type="truck_truck" depart="1942.26" departLane="best" from="-105297359#4" to="-105019321#5"/>
    <trip id="truck261" type="truck_truck" depart="1949.73" departLane="best" from="-105350865#3" to="52085865#21"/>
    <trip id="truck263" type="truck_truck" depart="1964.67" departLane="best" from="52085865#14" to="105297369#2"/>
    <trip id="truck264" type="truck_truck" depart="1972.14" departLane="best" from="-34995994#4" to="105019335#11"/>
    <trip id="truck266" type="truck_truck" depart="1987.08" departLane="best" from="-105299184#0" to="-52085865#4"/>
    <trip id="truck267" type="truck_truck" depart="1994.55" departLane="best" from="1029504351#3" to="-105350865#0"/>
    <trip id="truck268" type="truck_truck" depart="2002.02" departLane="best" from="992291721#7" to="-116237632#2"/>
    <trip id="truck269" type="truck_truck" depart="2009.49" departLane="best" from="52101404#1" to="105258498#3"/>
    <trip id="truck271" type="truck_truck" depart="2024.43" departLane="best" from="105297369#6" to="105350865#1"/>
    <trip id="truck272" type="truck_truck" depart="2031.90" departLane="best" from="1029504352#6" to="52085865#16"/>
    <trip id="truck273" type="truck_truck" depart="2039.37" departLane="best" from="105019339#0" to="-361033192"/>
    <trip id="truck274" type="truck_truck" depart="2046.84" departLane="best" from="105258498#2" to="116237632#5"/>
    <trip id="truck275" type="truck_truck" depart="2054.31" departLane="best" from="105350837#4" to="-105019335#10"/>
    <trip id="truck277" type="truck_truck" depart="2069.25" departLane="best" from="-34995994#0" to="-105019339#4"/>
    <trip id="truck278" type="truck_truck" depart="2076.72" departLane="best" from="52101402#0" to="190892041#1"/>
    <trip id="truck281" type="truck_truck" depart="2099.13" departLane="best" from="-52085865#16" to="105578155#5"/>
    <trip id="truck282" type="truck_truck" depart="2106.60" departLane="best" departSpeed="max" from="1029381531#0" to="105297369#0"/>
    <trip id="truck283" type="truck_truck" depart="2114.07" departLane="best" from="105297359#6" to="105019335#1"/>
    <trip id="truck284" type="truck_truck" depart="2121.54" departLane="best" from="-104777765#7" to="34995994#3"/>
    <trip id="truck285" type="truck_truck" depart="2129.01" departLane="best" from="105019321#0" to="52085865#22"/>
    <trip id="truck286" type="truck_truck" depart="2136.48" departLane="best" from="-105350837#4" to="-105019321#1"/>
    <trip id="truck287" type="truck_truck" depart="2143.95" departLane="best" from="116237616#1" to="52085865#2"/>
    <trip id="truck288" type="truck_truck" depart="2151.42" departLane="best" from="-116237636#1" to="-52100424#1"/>
    <trip id="truck290" type="truck_truck" depart="2166.36" departLane="best" from="-105019335#4" to="34995994#5"/>
    <trip id="truck291" type="truck_truck" depart="2173.83" departLane="best" from="105297359#5" to="105350865#0"/>
    <trip id="truck292" type="truck_truck" depart="2181.30" departLane="best" from="105350838#2" to="-105258497#9"/>