<?xml version="1.0" encoding="UTF-8"?>

<!-- generated on 2022-02-16 10:05:40 by Eclipse SUMO duarouter Version 1.12.0
<configuration xmlns:xsi="http://www.w3.org/2001/XMLSchema-instance" xsi:noNamespaceSchemaLocation="http://sumo.dlr.de/xsd/duarouterConfiguration.xsd">

    <input>
        <net-file value="C:\Users\91987\Sumo\2022-02-16-10-05-23\osm.net.xml"/>
        <route-files value="C:\Users\91987\Sumo\2022-02-16-10-05-23\osm.bicycle.trips.xml"/>
    </input>

    <output>
        <output-file value="C:\Users\91987\Sumo\2022-02-16-10-05-23\osm.bicycle.trips.xml.tmp"/>
        <write-trips value="true"/>
    </output>

    <time>
        <begin value="0"/>
        <end value="3600"/>
    </time>

    <report>
        <no-warnings value="true"/>
        <ignore-errors value="true"/>
        <no-step-log value="true"/>
    </report>

</configuration>
-->

<routes xmlns:xsi="http://www.w3.org/2001/XMLSchema-instance" xsi:noNamespaceSchemaLocation="http://sumo.dlr.de/xsd/routes_file.xsd">
    <vType id="bike_bicycle" vClass="bicycle"/>
    <trip id="bike0" type="bike_bicycle" depart="0.00" departLane="best" from="105258493" to="-104789477#1"/>
    <trip id="bike1" type="bike_bicycle" depart="5.62" departLane="best" from="-105350838#2" to="-105297400#5"/>
    <trip id="bike2" type="bike_bicycle" depart="11.24" departLane="best" from="105299194#2" to="105258518#1"/>
    <trip id="bike3" type="bike_bicycle" depart="16.87" departLane="best" from="116334756#0" to="-105019287#2"/>
    <trip id="bike4" type="bike_bicycle" depart="22.49" departLane="best" from="-218973630" to="-104789479"/>
    <trip id="bike5" type="bike_bicycle" depart="28.11" departLane="best" from="-105297398#3" to="104777721#1"/>
    <trip id="bike6" type="bike_bicycle" depart="33.73" departLane="best" from="-104789478#0" to="-105297365#6"/>
    <trip id="bike7" type="bike_bicycle" depart="39.36" departLane="best" from="105258497#6" to="105015966#1"/>
    <trip id="bike8" type="bike_bicycle" depart="44.98" departLane="best" from="-105297400#1" to="105019298#1"/>
    <trip id="bike9" type="bike_bicycle" depart="50.60" departLane="best" from="105578159#1" to="-104777720"/>
    <trip id="bike10" type="bike_bicycle" depart="56.22" departLane="best" from="105578155#4" to="105297369#0"/>
    <trip id="bike11" type="bike_bicycle" depart="61.85" departLane="best" from="-116237607#3" to="-105258498#1"/>
    <trip id="bike12" type="bike_bicycle" depart="67.47" departLane="best" from="52100423#8" to="-116234247#1"/>
    <trip id="bike13" type="bike_bicycle" depart="73.09" departLane="best" from="-105019300#1" to="-105019300#6"/>
    <trip id="bike14" type="bike_bicycle" depart="78.71" departLane="best" from="116237607#10" to="105019313"/>
    <trip id="bike15" type="bike_bicycle" depart="84.34" departLane="best" from="105578156#1" to="105299184#0"/>
    <trip id="bike16" type="bike_bicycle" depart="89.96" departLane="best" from="104789490#0" to="539612803#2"/>
    <trip id="bike17" type="bike_bicycle" depart="95.58" departLane="best" from="-116237638#2" to="105019183#2"/>
    <trip id="bike18" type="bike_bicycle" depart="101.20" departLane="best" from="116234203#1" to="105019332#1"/>
    <trip id="bike19" type="bike_bicycle" depart="106.83" departLane="best" from="116237620#0" to="105019271"/>
    <trip id="bike20" type="bike_bicycle" depart="112.45" departLane="best" from="105297373#0" to="-105015963#1"/>
    <trip id="bike21" type="bike_bicycle" depart="118.07" departLane="best" from="-105297402#3" to="-105350865#3"/>
    <trip id="bike22" type="bike_bicycle" depart="123.69" departLane="best" from="-105019271" to="-105299187"/>
    <trip id="bike23" type="bike_bicycle" depart="129.32" departLane="best" from="-105019305#2" to="-105350839#2"/>
    <trip id="bike24" type="bike_bicycle" depart="134.94" departLane="best" from="105258492#1" to="-116237629#0"/>
    <trip id="bike25" type="bike_bicycle" depart="140.56" departLane="best" from="-116237632#3" to="-105297382"/>
    <trip id="bike26" type="bike_bicycle" depart="146.18" departLane="best" from="-105350834" to="52085865#0"/>
    <trip id="bike27" type="bike_bicycle" depart="151.81" departLane="best" from="105258497#3" to="105019321#11"/>
    <trip id="bike28" type="bike_bicycle" depart="157.43" departLane="best" from="-105258510" to="105297404"/>
    <trip id="bike29" type="bike_bicycle" depart="163.05" departLane="best" from="-105258503" to="-116237639"/>
    <trip id="bike30" type="bike_bicycle" depart="168.67" departLane="best" from="992291722" to="105258494#1"/>
    <trip id="bike31" type="bike_bicycle" depart="174.30" departLane="best" from="105019196#2" to="105297358"/>
    <trip id="bike32" type="bike_bicycle" depart="179.92" departLane="best" from="116234246" to="105350838#2"/>
    <trip id="bike33" type="bike_bicycle" depart="185.54" departLane="best" from="-105297402#4" to="-104789484#0"/>
    <trip id="bike34" type="bike_bicycle" depart="191.16" departLane="best" from="-116234195#0" to="-105350835"/>
    <trip id="bike35" type="bike_bicycle" depart="196.79" departLane="best" from="-105297384#1" to="52085865#17"/>
    <trip id="bike36" type="bike_bicycle" depart="202.41" departLane="best" from="116237632#0" to="-116234194#2"/>
    <trip id="bike37" type="bike_bicycle" depart="208.03" departLane="best" from="105258499" to="-116334780#1"/>
    <trip id="bike38" type="bike_bicycle" depart="213.65" departLane="best" from="116481185" to="-52101402#0"/>
    <trip id="bike39" type="bike_bicycle" depart="219.28" departLane="best" from="-105350830#3" to="-105305052"/>
    <trip id="bike40" type="bike_bicycle" depart="224.90" departLane="best" from="105019221#4" to="-105350830#0"/>
    <trip id="bike41" type="bike_bicycle" depart="230.52" departLane="best" from="105019287#1" to="116334771"/>
    <trip id="bike42" type="bike_bicycle" depart="236.14" departLane="best" from="-116334788#2" to="-105297398#5"/>
    <trip id="bike43" type="bike_bicycle" depart="241.77" departLane="best" from="995157437" to="104777740#1"/>
    <trip id="bike44" type="bike_bicycle" depart="247.39" departLane="best" from="-105019298#0" to="-105015966#0"/>
    <trip id="bike45" type="bike_bicycle" depart="253.01" departLane="best" from="-105019321#1" to="105019335#9"/>
    <trip id="bike46" type="bike_bicycle" depart="258.63" departLane="best" from="105578110#1" to="-218973630"/>
    <trip id="bike47" type="bike_bicycle" depart="264.26" departLane="best" from="-105019221#4" to="-116334755#1"/>
    <trip id="bike48" type="bike_bicycle" depart="269.88" departLane="best" from="995157436#0" to="104789482"/>
    <trip id="bike49" type="bike_bicycle" depart="275.50" departLane="best" from="52101404#1" to="116237619#1"/>
    <trip id="bike50" type="bike_bicycle" depart="281.12" departLane="best" from="-104777740#0" to="105297400#2"/>
    <trip id="bike51" type="bike_bicycle" depart="286.75" departLane="best" from="105297353" to="104789490#2"/>
    <trip id="bike52" type="bike_bicycle" depart="292.37" departLane="best" from="-105350834" to="105258494#2"/>
    <trip id="bike53" type="bike_bicycle" depart="297.99" departLane="best" from="-105019321#12" to="-52085865#15"/>
    <trip id="bike54" type="bike_bicycle" depart="303.61" departLane="best" from="-52100424#4" to="52100423#3"/>
    <trip id="bike55" type="bike_bicycle" depart="309.24" departLane="best" from="116237631#1" to="-105350830#1"/>
    <trip id="bike56" type="bike_bicycle" depart="314.86" departLane="best" from="104777715#0" to="-105258518#0"/>
    <trip id="bike57" type="bike_bicycle" depart="320.48" departLane="best" from="116481175" to="116237626#1"/>
    <trip id="bike58" type="bike_bicycle" depart="326.10" departLane="best" from="-105578139#6" to="105258494#0"/>
    <trip id="bike59" type="bike_bicycle" depart="331.73" departLane="best" from="105019321#10" to="-105258497#7"/>
    <trip id="bike60" type="bike_bicycle" depart="337.35" departLane="best" from="105350824#0" to="104789493"/>
    <trip id="bike61" type="bike_bicycle" depart="342.97" departLane="best" from="105350839#2" to="104789484#1"/>
    <trip id="bike62" type="bike_bicycle" depart="348.59" departLane="best" from="-103185303#0" to="-116234214#0"/>
    <trip id="bike63" type="bike_bicycle" depart="354.22" departLane="best" from="-104777765#5" to="190892041#7"/>
    <trip id="bike64" type="bike_bicycle" depart="359.84" departLane="best" from="116237632#3" to="116234214#1"/>
    <trip id="bike65" type="bike_bicycle" depart="365.46" departLane="best" from="-115880805" to="-105019196#1"/>
    <trip id="bike66" type="bike_bicycle" depart="371.08" departLane="best" from="116237632#2" to="52085865#23"/>
    <trip id="bike67" type="bike_bicycle" depart="376.71" departLane="best" from="-105019287#0" to="-995157437"/>
    <trip id="bike68" type="bike_bicycle" depart="382.33" departLane="best" from="-105019247#1" to="105350819#3"/>
    <trip id="bike69" type="bike_bicycle" depart="387.95" departLane="best" from="105350830#3" to="-105019335#7"/>
    <trip id="bike70" type="bike_bicycle" depart="393.57" departLane="best" from="-992291721#3" to="105015979#5"/>
    <trip id="bike71" type="bike_bicycle" depart="399.20" departLane="best" from="-105350830#4" to="116237629#0"/>
    <trip id="bike72" type="bike_bicycle" depart="404.82" departLane="best" from="-218973631#1" to="-105297384#2"/>
    <trip id="bike73" type="bike_bicycle" depart="410.44" departLane="best" from="104789492#2" to="105299184#0"/>
    <trip id="bike74" type="bike_bicycle" depart="416.06" departLane="best" from="-105297369#1" to="-115880826"/>
    <trip id="bike75" type="bike_bicycle" depart="421.69" departLane="best" from="995157434" to="105258497#6"/>
    <trip id="bike76" type="bike_bicycle" depart="427.31" departLane="best" from="-52085865#21" to="104777765#5"/>
    <trip id="bike77" type="bike_bicycle" depart="432.93" departLane="best" from="-105019332#1" to="-105297401#1"/>
    <trip id="bike78" type="bike_bicycle" depart="438.55" departLane="best" from="-116237607#1" to="105019294#2"/>
    <trip id="bike79" type="bike_bicycle" depart="444.18" departLane="best" from="-105299184#0" to="-105297400#0"/>
    <trip id="bike80" type="bike_bicycle" depart="449.80" departLane="best" from="-105019251#1" to="105019339#3"/>
    <trip id="bike81" type="bike_bicycle" depart="455.42" departLane="best" from="-105297402#4" to="116334786"/>
    <trip id="bike83" type="bike_bicycle" depart="466.67" departLane="best" from="-105305005#2" to="105258510"/>
    <trip id="bike84" type="bike_bicycle" depart="472.29" departLane="best" from="-105297395#1" to="-105019339#1"/>
    <trip id="bike85" type="bike_bicycle" depart="477.91" departLane="best" from="34995994#5" to="105019257#1"/>
    <trip id="bike86" type="bike_bicycle" depart="483.53" departLane="best" from="-738167327" to="105350856#4"/>
    <trip id="bike87" type="bike_bicycle" depart="489.16" departLane="best" from="105578156#1" to="-105297359#4"/>
    <trip id="bike88" type="bike_bicycle" depart="494.78" departLane="best" from="-105019300#7" to="-52085865#10"/>
    <trip id="bike89" type="bike_bicycle" depart="500.40" departLane="best" from="-218973631#2" to="-539612803#4"/>
    <trip id="bike90" type="bike_bicycle" depart="506.02" departLane="best" from="105297402#4" to="105258514#3"/>
    <trip id="bike91" type="bike_bicycle" depart="511.65" departLane="best" from="992291721#0" to="-105019300#9"/>
    <trip id="bike92" type="bike_bicycle" depart="517.27" departLane="best" from="-116481170" to="-116237607#10"/>
    <trip id="bike93" type="bike_bicycle" depart="522.89" departLane="best" from="116237620#0" to="-105305056#1"/>
    <trip id="bike94" type="bike_bicycle" depart="528.51" departLane="best" from="-105297359#4" to="-52100423#5"/>
    <trip id="bike95" type="bike_bicycle" depart="534.14" departLane="best" from="-218973630" to="-105350839#2"/>
    <trip id="bike96" type="bike_bicycle" depart="539.76" departLane="best" from="-105305057#1" to="116501223"/>
    <trip id="bike97" type="bike_bicycle" depart="545.38" departLane="best" from="-52085865#7" to="116237619#1"/>
    <trip id="bike98" type="bike_bicycle" depart="551.00" departLane="best" from="105015979#5" to="-105015979#2"/>
    <trip id="bike99" type="bike_bicycle" depart="556.63" departLane="best" from="995157439" to="116234234#1"/>
    <trip id="bike100" type="bike_bicycle" depart="562.25" departLane="best" from="52101402#5" to="190892041#3"/>
    <trip id="bike101" type="bike_bicycle" depart="567.87" departLane="best" from="116237607#3" to="-105258507#0"/>
    <trip id="bike102" type="bike_bicycle" depart="573.49" departLane="best" from="-995157437" to="-105297387#2"/>
    <trip id="bike103" type="bike_bicycle" depart="579.12" departLane="best" from="-116334788#4" to="-105019196#2"/>
    <trip id="bike104" type="bike_bicycle" depart="584.74" departLane="best" from="-116237639" to="992291721#2"/>
    <trip id="bike105" type="bike_bicycle" depart="590.36" departLane="best" from="-105350830#4" to="105350856#3"/>
    <trip id="bike106" type="bike_bicycle" depart="595.98" departLane="best" from="-52100424#6" to="-218973631#0"/>
    <trip id="bike107" type="bike_bicycle" depart="601.61" departLane="best" from="52100423#8" to="995157435"/>
    <trip id="bike108" type="bike_bicycle" depart="607.23" departLane="best" from="105019196#1" to="105297398#3"/>
    <trip id="bike109" type="bike_bicycle" depart="612.85" departLane="best" from="-105258498#0" to="-105578139#3"/>
    <trip id="bike110" type="bike_bicycle" depart="618.47" departLane="best" from="52101402#4" to="105019274"/>
    <trip id="bike111" type="bike_bicycle" depart="624.10" departLane="best" from="105015955" to="105305053"/>
    <trip id="bike112" type="bike_bicycle" depart="629.72" departLane="best" from="-105019196#0" to="105019287#1"/>
    <trip id="bike113" type="bike_bicycle" depart="635.34" departLane="best" from="104777715#3" to="116237607#9"/>
    <trip id="bike114" type="bike_bicycle" depart="640.96" departLane="best" from="-105258499" to="52100424#2"/>
    <trip id="bike115" type="bike_bicycle" depart="646.59" departLane="best" from="-105019271" to="-105297356#1"/>
    <trip id="bike116" type="bike_bicycle" depart="652.21" departLane="best" from="105019300#6" to="105258517"/>
    <trip id="bike117" type="bike_bicycle" depart="657.83" departLane="best" from="-105304996#0" to="-105019327"/>
    <trip id="bike118" type="bike_bicycle" depart="663.45" departLane="best" from="116334755#3" to="-105305052"/>
    <trip id="bike119" type="bike_bicycle" depart="669.08" departLane="best" from="105019300#6" to="105019332#2"/>
    <trip id="bike120" type="bike_bicycle" depart="674.70" departLane="best" from="-190892041#4" to="105019287#1"/>
    <trip id="bike121" type="bike_bicycle" depart="680.32" departLane="best" from="104789476#1" to="34995994#4"/>
    <trip id="bike122" type="bike_bicycle" depart="685.94" departLane="best" from="-105297369#6" to="105297397#1"/>
    <trip id="bike123" type="bike_bicycle" depart="691.57" departLane="best" from="-105305005#3" to="-116334782#0"/>
    <trip id="bike124" type="bike_bicycle" depart="697.19" departLane="best" from="105258514#0" to="-105578139#7"/>
    <trip id="bike125" type="bike_bicycle" depart="702.81" departLane="best" from="-116234195#1" to="105350814"/>
    <trip id="bike126" type="bike_bicycle" depart="708.43" departLane="best" from="-105019251#3" to="-52101394"/>
    <trip id="bike127" type="bike_bicycle" depart="714.06" departLane="best" from="995157438" to="995157436#0"/>
    <trip id="bike128" type="bike_bicycle" depart="719.68" departLane="best" from="-105019257#0" to="-105297387#1"/>
    <trip id="bike129" type="bike_bicycle" depart="725.30" departLane="best" from="-105350830#4" to="34995994#2"/>
    <trip id="bike130" type="bike_bicycle" depart="730.92" departLane="best" from="116237632#6" to="116237632#4"/>
    <trip id="bike131" type="bike_bicycle" depart="736.55" departLane="best" from="-116237632#2" to="-105258499"/>
    <trip id="bike132" type="bike_bicycle" depart="742.17" departLane="best" from="116234220#1" to="105297371"/>
    <trip id="bike133" type="bike_bicycle" depart="747.79" departLane="best" from="105019321#16" to="992291721#5"/>
    <trip id="bike134" type="bike_bicycle" depart="753.41" departLane="best" from="105258498#1" to="-104777721#1"/>
    <trip id="bike135" type="bike_bicycle" depart="759.04" departLane="best" from="115880808#0" to="-105578139#7"/>
    <trip id="bike136" type="bike_bicycle" depart="764.66" departLane="best" from="105258504#1" to="52085865#11"/>
    <trip id="bike137" type="bike_bicycle" depart="770.28" departLane="best" from="-105019339#5" to="-105019321#4"/>
    <trip id="bike138" type="bike_bicycle" depart="775.90" departLane="best" from="-105019315" to="105019190"/>
    <trip id="bike139" type="bike_bicycle" depart="781.53" departLane="best" from="-105350837#6" to="105019315"/>
    <trip id="bike140" type="bike_bicycle" depart="787.15" departLane="best" from="105297398#1" to="-105297369#4"/>
    <trip id="bike141" type="bike_bicycle" depart="792.77" departLane="best" from="105258491" to="-105350830#1"/>
    <trip id="bike142" type="bike_bicycle" depart="798.39" departLane="best" departSpeed="max" from="1029381531#0" to="116334786"/>
    <trip id="bike143" type="bike_bicycle" depart="804.02" departLane="best" from="116237607#0" to="-105019300#0"/>
    <trip id="bike144" type="bike_bicycle" depart="809.64" departLane="best" from="-218973631#2" to="-105350839#0"/>
    <trip id="bike145" type="bike_bicycle" depart="815.26" departLane="best" from="-104777715#2" to="105350837#3"/>
    <trip id="bike146" type="bike_bicycle" depart="820.88" departLane="best" from="105258492#3" to="-105350824#1"/>
    <trip id="bike147" type="bike_bicycle" depart="826.51" departLane="best" from="105305005#4" to="105019183#2"/>
    <trip id="bike148" type="bike_bicycle" depart="832.13" departLane="best" from="-34995994#5" to="-104777724#1"/>
    <trip id="bike149" type="bike_bicycle" depart="837.75" departLane="best" from="-105019258" to="116237636#0"/>
    <trip id="bike150" type="bike_bicycle" depart="843.37" departLane="best" from="116334782#1" to="105015969"/>
    <trip id="bike151" type="bike_bicycle" depart="849.00" departLane="best" from="116234230" to="105019286#1"/>
    <trip id="bike152" type="bike_bicycle" depart="854.62" departLane="best" from="-105258497#1" to="-105019335#5"/>
    <trip id="bike153" type="bike_bicycle" depart="860.24" departLane="best" from="-115880808#0" to="116334777#0"/>
    <trip id="bike154" type="bike_bicycle" depart="865.86" departLane="best" from="105578139#1" to="116237619#0"/>
    <trip id="bike155" type="bike_bicycle" depart="871.49" departLane="best" from="116334774#0" to="-105297384#0"/>
    <trip id="bike156" type="bike_bicycle" depart="877.11" departLane="best" from="-105305057#1" to="-105019305#5"/>
    <trip id="bike157" type="bike_bicycle" depart="882.73" departLane="best" from="105350840#1" to="116237636#1"/>
    <trip id="bike158" type="bike_bicycle" depart="888.35" departLane="best" from="-116481185" to="105019335#1"/>
    <trip id="bike159" type="bike_bicycle" depart="893.98" departLane="best" from="-105258498#0" to="218973631#0"/>
    <trip id="bike160" type="bike_bicycle" depart="899.60" departLane="best" from="116237622#1" to="657456138"/>
    <trip id="bike161" type="bike_bicycle" depart="905.22" departLane="best" from="105578159#3" to="116237633#1"/>
    <trip id="bike162" type="bike_bicycle" depart="910.84" departLane="best" from="-104789476#1" to="105299194#2"/>
    <trip id="bike163" type="bike_bicycle" depart="916.47" departLane="best" from="-116234242#0" to="218973631#2"/>
    <trip id="bike164" type="bike_bicycle" depart="922.09" departLane="best" from="105578153" to="116237622#0"/>
    <trip id="bike165" type="bike_bicycle" depart="927.71" departLane="best" from="105578159#3" to="-105350834"/>
    <trip id="bike166" type="bike_bicycle" depart="933.33" departLane="best" from="105350862#2" to="-105019317"/>
    <trip id="bike167" type="bike_bicycle" depart="938.96" departLane="best" from="116237629#0" to="116237616#1"/>
    <trip id="bike168" type="bike_bicycle" depart="944.58" departLane="best" from="-105297400#4" to="115880808#0"/>
    <trip id="bike169" type="bike_bicycle" depart="950.20" departLane="best" from="-52101402#4" to="-115880795#0"/>
    <trip id="bike170" type="bike_bicycle" depart="955.82" departLane="best" from="105578139#0" to="-105297402#2"/>
    <trip id="bike171" type="bike_bicycle" depart="961.45" departLane="best" from="-104789476#0" to="-105297362"/>
    <trip id="bike172" type="bike_bicycle" depart="967.07" departLane="best" from="-116234234#0" to="116237622#1"/>
    <trip id="bike173" type="bike_bicycle" depart="972.69" departLane="best" from="52101402#1" to="-105350840#0"/>
    <trip id="bike174" type="bike_bicycle" depart="978.31" departLane="best" from="105258494#2" to="-116334788#1"/>
    <trip id="bike175" type="bike_bicycle" depart="983.94" departLane="best" from="738167324" to="104789490#1"/>
    <trip id="bike176" type="bike_bicycle" depart="989.56" departLane="best" from="52085865#12" to="-105019321#4"/>
    <trip id="bike177" type="bike_bicycle" depart="995.18" departLane="best" from="52101404#0" to="-105258518#0"/>
    <trip id="bike178" type="bike_bicycle" depart="1000.80" departLane="best" from="52100424#5" to="-105350830#4"/>
    <trip id="bike179" type="bike_bicycle" depart="1006.43" departLane="best" from="-105019318" to="-52085865#15"/>
    <trip id="bike180" type="bike_bicycle" depart="1012.05" departLane="best" from="105297402#3" to="-116234194#0"/>
    <trip id="bike181" type="bike_bicycle" depart="1017.67" departLane="best" from="105019317" to="104777752"/>
    <trip id="bike182" type="bike_bicycle" depart="1023.29" departLane="best" from="-116334756#1" to="105019266#2"/>
    <trip id="bike183" type="bike_bicycle" depart="1028.91" departLane="best" from="-105350815#5" to="105297384#1"/>
    <trip id="bike184" type="bike_bicycle" depart="1034.54" departLane="best" from="-103185303#2" to="190892041#1"/>
    <trip id="bike185" type="bike_bicycle" depart="1040.16" departLane="best" from="104789492#1" to="105297400#0"/>
    <trip id="bike186" type="bike_bicycle" depart="1045.78" departLane="best" from="105305014" to="105258513"/>
    <trip id="bike187" type="bike_bicycle" depart="1051.40" departLane="best" from="-116237629#0" to="-105019247#1"/>
    <trip id="bike188" type="bike_bicycle" depart="1057.03" departLane="best" from="105258507#0" to="-116234234#2"/>
    <trip id="bike189" type="bike_bicycle" depart="1062.65" departLane="best" from="-116234194#1" to="116237607#11"/>
    <trip id="bike190" type="bike_bicycle" depart="1068.27" departLane="best" from="105297400#0" to="-105578139#8"/>
    <trip id="bike191" type="bike_bicycle" depart="1073.89" departLane="best" from="-115880808#1" to="-116481186#1"/>
    <trip id="bike192" type="bike_bicycle" depart="1079.52" departLane="best" from="-116481170" to="-105578139#1"/>
    <trip id="bike193" type="bike_bicycle" depart="1085.14" departLane="best" from="-105019335#5" to="-190892041#5"/>
    <trip id="bike194" type="bike_bicycle" depart="1090.76" departLane="best" from="52085865#13" to="105258519"/>
    <trip id="bike195" type="bike_bicycle" depart="1096.38" departLane="best" from="116334780#1" to="105019321#8"/>
    <trip id="bike196" type="bike_bicycle" depart="1102.01" departLane="best" from="-105578139#9" to="105015979#2"/>
    <trip id="bike197" type="bike_bicycle" depart="1107.63" departLane="best" from="-103185303#0" to="-105350865#0"/>
    <trip id="bike198" type="bike_bicycle" depart="1113.25" departLane="best" from="-52085865#1" to="105019282"/>
    <trip id="bike199" type="bike_bicycle" depart="1118.87" departLane="best" from="105258498#3" to="-539612803#1"/>
    <trip id="bike200" type="bike_bicycle" depart="1124.50" departLane="best" from="-52085865#5" to="-105297387#2"/>
    <trip id="bike201" type="bike_bicycle" depart="1130.12" departLane="best" from="-738167327" to="116334779#1"/>
    <trip id="bike202" type="bike_bicycle" depart="1135.74" departLane="best" from="105578139#1" to="-105258509#0"/>
    <trip id="bike203" type="bike_bicycle" depart="1141.36" departLane="best" from="-105019286#1" to="104777765#2"/>
    <trip id="bike204" type="bike_bicycle" depart="1146.99" departLane="best" from="105019339#5" to="-116234246"/>
    <trip id="bike205" type="bike_bicycle" depart="1152.61" departLane="best" from="115880813#0" to="105305057#1"/>
    <trip id="bike206" type="bike_bicycle" depart="1158.23" departLane="best" from="105258514#2" to="-105297401#1"/>
    <trip id="bike207" type="bike_bicycle" depart="1163.85" departLane="best" from="-105297365#7" to="-104789476#1"/>
    <trip id="bike208" type="bike_bicycle" depart="1169.48" departLane="best" from="-105305045" to="-992291721#2"/>
    <trip id="bike209" type="bike_bicycle" depart="1175.10" departLane="best" from="116237607#4" to="-105019257#0"/>
    <trip id="bike210" type="bike_bicycle" depart="1180.72" departLane="best" from="-116481985#4" to="105019339#1"/>
    <trip id="bike211" type="bike_bicycle" depart="1186.34" departLane="best" from="-105297365#0" to="105297365#6"/>
    <trip id="bike212" type="bike_bicycle" depart="1191.97" departLane="best" from="1029504352#2" to="-105305034#2"/>
    <trip id="bike213" type="bike_bicycle" depart="1197.59" departLane="best" from="105258500#0" to="-104777719"/>
    <trip id="bike214" type="bike_bicycle" depart="1203.21" departLane="best" from="105305057#1" to="105350837#2"/>
    <trip id="bike215" type="bike_bicycle" depart="1208.83" departLane="best" from="-105019315" to="-34995994#0"/>
    <trip id="bike216" type="bike_bicycle" depart="1214.46" departLane="best" from="-105258515" to="52100424#0"/>
    <trip id="bike217" type="bike_bicycle" depart="1220.08" departLane="best" from="104777765#5" to="-105015979#2"/>
    <trip id="bike218" type="bike_bicycle" depart="1225.70" departLane="best" from="-105305057#1" to="116237607#3"/>
    <trip id="bike219" type="bike_bicycle" depart="1231.32" departLane="best" from="-52100424#8" to="105578139#9"/>
    <trip id="bike220" type="bike_bicycle" depart="1236.95" departLane="best" from="105258509#0" to="992291721#6"/>
    <trip id="bike221" type="bike_bicycle" depart="1242.57" departLane="best" from="105019300#7" to="52085865#6"/>
    <trip id="bike222" type="bike_bicycle" depart="1248.19" departLane="best" from="116334755#5" to="105019321#4"/>
    <trip id="bike223" type="bike_bicycle" depart="1253.81" departLane="best" from="105297398#5" to="104777721#0"/>
    <trip id="bike224" type="bike_bicycle" depart="1259.44" departLane="best" from="116234208" to="105015979#2"/>
    <trip id="bike225" type="bike_bicycle" depart="1265.06" departLane="best" from="116334769" to="105305034#0"/>
    <trip id="bike226" type="bike_bicycle" depart="1270.68" departLane="best" from="-992291721#2" to="-105350819#2"/>
    <trip id="bike227" type="bike_bicycle" depart="1276.30" departLane="best" from="-105305056#0" to="105258492#5"/>
    <trip id="bike228" type="bike_bicycle" depart="1281.93" departLane="best" from="105350830#3" to="104789476#0"/>
    <trip id="bike229" type="bike_bicycle" depart="1287.55" departLane="best" from="105019335#7" to="-105350838#1"/>
    <trip id="bike230" type="bike_bicycle" depart="1293.17" departLane="best" from="-105019261#2" to="-105350862#1"/>
    <trip id="bike231" type="bike_bicycle" depart="1298.79" departLane="best" from="-105350837#5" to="-116234198"/>
    <trip id="bike232" type="bike_bicycle" depart="1304.42" departLane="best" from="104789493" to="-105258492#2"/>
    <trip id="bike233" type="bike_bicycle" depart="1310.04" departLane="best" from="-105299185" to="105297365#3"/>
    <trip id="bike234" type="bike_bicycle" depart="1315.66" departLane="best" from="105297375" to="-105019224#0"/>
    <trip id="bike235" type="bike_bicycle" depart="1321.28" departLane="best" from="-116481186#0" to="105015956"/>
    <trip id="bike236" type="bike_bicycle" depart="1326.91" departLane="best" from="-116501223" to="-105297373#0"/>
    <trip id="bike237" type="bike_bicycle" depart="1332.53" departLane="best" from="-190892041#6" to="116334782#2"/>
    <trip id="bike238" type="bike_bicycle" depart="1338.15" departLane="best" from="105019287#0" to="105297365#5"/>
    <trip id="bike239" type="bike_bicycle" depart="1343.77" departLane="best" from="116237615#2" to="105350830#3"/>
    <trip id="bike240" type="bike_bicycle" depart="1349.40" departLane="best" from="-116334755#0" to="-104777719"/>
    <trip id="bike242" type="bike_bicycle" depart="1360.64" departLane="best" from="116237612#0" to="52100423#0"/>
    <trip id="bike243" type="bike_bicycle" depart="1366.26" departLane="best" from="-190892041#4" to="105305052"/>
    <trip id="bike244" type="bike_bicycle" depart="1371.89" departLane="best" from="105015969" to="105019312"/>
    <trip id="bike245" type="bike_bicycle" depart="1377.51" departLane="best" from="-105297400#1" to="-105297398#5"/>
    <trip id="bike246" type="bike_bicycle" depart="1383.13" departLane="best" from="-52085865#17" to="-104789478#3"/>
    <trip id="bike247" type="bike_bicycle" depart="1388.75" departLane="best" from="-116234247#1" to="105297351#0"/>
    <trip id="bike248" type="bike_bicycle" depart="1394.38" departLane="best" from="-116481175" to="-105258504#1"/>
    <trip id="bike249" type="bike_bicycle" depart="1400.00" departLane="best" from="-657456138" to="-105019335#6"/>
    <trip id="bike250" type="bike_bicycle" depart="1405.62" departLane="best" from="105019335#11" to="-104789478#0"/>
    <trip id="bike251" type="bike_bicycle" depart="1411.24" departLane="best" from="-116334780#0" to="105019233"/>
    <trip id="bike252" type="bike_bicycle" depart="1416.87" departLane="best" from="-104789478#1" to="105258495#2"/>