<?xml version="1.0" encoding="UTF-8"?>

<!-- generated on 2022-02-16 10:05:30 by Eclipse SUMO polyconvert Version 1.12.0
<configuration xmlns:xsi="http://www.w3.org/2001/XMLSchema-instance" xsi:noNamespaceSchemaLocation="http://sumo.dlr.de/xsd/polyconvertConfiguration.xsd">

    <input>
        <net-file value="osm.net.xml"/>
        <osm-files value="osm_bbox.osm.xml"/>
        <osm.keep-full-type value="true"/>
        <type-file value="C:\Program%20Files%20(x86)\Eclipse\Sumo\data\typemap\osmPolyconvert.typ.xml"/>
    </input>

    <output>
        <output-file value="osm.poly.xml"/>
    </output>

    <processing>
        <poi-layer-offset value="5"/>
    </processing>

    <report>
        <verbose value="true"/>
    </report>

</configuration>
-->

<additional xmlns:xsi="http://www.w3.org/2001/XMLSchema-instance" xsi:noNamespaceSchemaLocation="http://sumo.dlr.de/xsd/additional_file.xsd">
    <location netOffset="-638350.65,-2488399.93" convBoundary="-11674.03,-0.00,6407.72,46780.08" origBoundary="88.232004,22.496448,88.411225,22.918503" projParameter="+proj=utm +zone=45 +ellps=WGS84 +datum=WGS84 +units=m +no_defs"/>

    <poly id="104777761" type="landuse.residential" color="235,235,227" fill="1" layer="-3.00" shape="1791.723119,11466.932920 1736.352900,11312.495816 1674.931855,11125.893304 1814.248879,11072.413112 1960.750472,11024.890512 1992.901394,11137.028938 2036.535704,11232.353784 2045.332155,11259.750416 2085.950198,11407.022503 2052.721531,11419.385015 1883.969881,11432.654731 1840.269171,11453.558453 1791.723119,11466.932920"/>
    <poly id="104777769" type="landuse.residential" color="235,235,227" fill="1" layer="-3.00" shape="1595.084657,11674.418077 1764.523441,11600.285743 1818.776536,11577.751049 1947.627908,11961.687244 2005.054233,12074.079599 1967.875115,12038.638896 1854.307273,11913.674747 1763.617509,11819.625029 1670.606490,11738.708917 1595.084657,11674.418077"/>
    <poly id="104789487" type="landuse.residential" color="235,235,227" fill="1" layer="-3.00" shape="1968.245956,11981.319541 1954.639084,11947.124580 1796.298717,11473.618310 1847.461949,11458.485123 1883.025244,11438.138080 2052.909548,11426.916091 2089.769928,11413.158504 2258.235783,11904.942427 2171.594773,11898.766149 2101.709393,11915.232398 2059.706178,11940.602182 1968.245956,11981.319541"/>
    <poly id="104789491" type="leisure.park" color="207,245,201" fill="1" layer="-2.00" shape="2092.724350,11668.475000 2077.205749,11616.269475 2091.596705,11610.920456 2087.836937,11599.370508 2148.640615,11584.570297 2169.161698,11643.952532 2092.724350,11668.475000"/>
    <poly id="105015950" type="landuse.industrial" color="209,209,204" fill="1" layer="-3.00" shape="2316.179213,12298.894850 2324.361290,12323.650824 2263.067270,12347.359119 2192.115707,12356.983264 2093.103435,12209.119617 2042.057037,12122.008665 2177.792550,12235.119740 2220.520938,12266.216127 2307.510274,12282.372426 2316.179213,12298.894850"/>
    <poly id="105015962" type="leisure.park" color="207,245,201" fill="1" layer="-2.00" shape="2037.682743,11998.044205 2047.381663,12022.260257 2035.181169,12029.821741 2054.780105,12057.428163 2107.952281,12032.692275 2076.786098,11943.571179 2035.784079,11964.033973 2047.673099,11990.462465 2037.682743,11998.044205"/>
    <poly id="105015972" type="leisure.park" color="207,245,201" fill="1" layer="-2.00" shape="2207.425419,12010.573709 2178.664489,12020.175512 2202.482136,12068.648387 2297.696245,12030.037456 2276.159207,11972.815862 2247.387877,11982.417446 2230.119942,11941.688989 2179.408886,11939.031328 2207.425419,12010.573709"/>
    <poly id="105015974" type="landuse.residential" color="235,235,227" fill="1" layer="-3.00" shape="2032.388319,12094.504330 2217.392058,12246.444974 2346.231273,12269.562742 2401.542586,12251.435731 2362.678670,12160.050790 2306.244377,12059.735141 2257.932119,11915.624692 2171.950324,11910.439919 2105.627592,11925.189359 1978.191715,11989.825810 2032.388319,12094.504330"/>
    <poly id="105019944" type="landuse.residential" color="235,235,227" fill="1" layer="-3.00" shape="2117.731179,11459.498891 2226.457153,11488.221793 2596.120392,11591.282360 2811.315918,11664.493666 2819.044231,11658.120613 2759.949374,11479.506485 2718.617090,11363.627520 2684.016778,11263.555922 2558.856681,10898.669720 2186.856066,10963.416796 1973.774966,11026.227747 2003.980324,11137.495800 2054.828030,11263.546734 2117.731179,11459.498891"/>
    <poly id="105258496" type="leisure.park" color="207,245,201" fill="1" layer="-2.00" shape="2316.246101,11626.578507 2295.909148,11558.395024 2306.141832,11525.581222 2366.663991,11541.494633 2380.259249,11621.674356 2316.246101,11626.578507"/>
    <poly id="105258505" type="leisure.park" color="207,245,201" fill="1" layer="-2.00" shape="2551.328788,11730.728415 2541.194330,11693.564137 2576.719273,11686.383648 2583.390810,11723.350009 2551.328788,11730.728415"/>
    <poly id="105258506" type="landuse.residential" color="235,235,227" fill="1" layer="-3.00" shape="2269.577341,11903.618166 2121.712766,11471.526999 2542.315384,11583.955686 2848.179481,11703.963988 2826.433187,11801.257970 2795.182751,11805.354776 2314.967769,11912.483279 2269.577341,11903.618166"/>
    <poly id="105297366" type="landuse.residential" color="235,235,227" fill="1" layer="-3.00" shape="2414.691299,12250.327507 2376.954188,12164.987448 2356.578502,12128.006011 2318.341572,12061.197084 2269.370863,11913.791984 2316.782727,11921.955941 2799.624744,11814.209504 2826.894031,11811.493315 2814.335940,11868.955201 2811.379545,11908.634365 2825.050965,11960.170518 2861.289334,12046.184470 2874.462060,12077.065654 2829.106905,12100.143669 2634.685520,12198.859090 2534.980809,12246.196125 2486.339483,12257.817937 2477.174648,12225.922070 2414.691299,12250.327507"/>
    <poly id="105299198" type="landuse.residential" color="235,235,227" fill="1" layer="-3.00" shape="2872.193781,12038.744541 2836.621886,11949.581007 2823.694732,11915.457857 2822.948418,11877.073286 2859.775935,11710.703367 3133.465655,11815.229504 3126.683281,11832.716988 2895.435195,12030.178237 2872.193781,12038.744541"/>
    <poly id="105304946" type="landuse.residential" color="235,235,227" fill="1" layer="-3.00" shape="2573.270064,10896.565581 2737.024163,11350.930626 2796.918853,11345.713400 2935.687675,11324.105199 3007.209169,10999.163454 3020.580793,10846.949767 2784.201920,10870.049975 2573.270064,10896.565581"/>
    <poly id="105305067" type="landuse.residential" color="235,235,227" fill="1" layer="-3.00" shape="2739.713305,11359.237697 2833.944305,11655.567267 2844.078073,11658.151994 2850.110266,11648.408321 2877.102100,11525.252796 2936.131985,11327.209628 2739.713305,11359.237697"/>
    <poly id="105350812" type="leisure.park" color="207,245,201" fill="1" layer="-2.00" shape="3089.141218,11684.218566 3203.501890,11722.556319 3279.467523,11618.035138 3372.675621,11439.033111 3416.652114,11335.246405 3399.031362,11332.891008 3402.615607,11303.304862 3297.605075,11326.461053 3198.064698,11355.160497 3190.050467,11386.887053 3089.141218,11684.218566"/>
    <poly id="105350813" type="leisure.recreation_ground" color="207,245,201" fill="1" layer="-2.00" shape="3114.598162,11674.056406 3136.151660,11610.100625 3208.141848,11637.638880 3183.863393,11698.280833 3114.598162,11674.056406"/>
    <poly id="105350816" type="landuse.residential" color="235,235,227" fill="1" layer="-3.00" shape="2863.052711,11698.741925 3142.580919,11808.969072 3202.247209,11727.051288 3075.447809,11685.243709 3178.624281,11370.604401 3198.588628,11280.635480 3123.082541,11305.216985 3040.580855,11322.503873 2971.543783,11337.988734 2946.408935,11331.013716 2863.052711,11698.741925"/>
    <poly id="105350826" type="leisure.pitch" color="207,245,201" fill="1" layer="-2.00" shape="3270.768911,11485.769627 3313.069191,11384.159559 3357.559482,11403.770901 3310.303842,11504.227784 3270.768911,11485.769627"/>
    <poly id="105350827" type="leisure.pitch" color="207,245,201" fill="1" layer="-2.00" shape="3195.311592,11594.193134 3170.076939,11579.155919 3155.867837,11564.763133 3158.850749,11540.120866 3175.089793,11513.951217 3194.023232,11494.383615 3221.131021,11485.853465 3253.637509,11489.442422 3277.171338,11508.306252 3288.518854,11534.188239 3278.309412,11564.255719 3259.870281,11590.404933 3242.107744,11602.309939 3219.456200,11607.027941 3195.311592,11594.193134"/>
    <poly id="105350841" type="natural.water" color="181,209,209" fill="1" layer="-4.00" shape="3216.877681,11467.721487 3207.547736,11462.696894 3209.823860,11455.587149 3216.444330,11455.648317 3222.005173,11450.218744 3220.965953,11443.631999 3213.831005,11440.277506 3208.830255,11444.062435 3203.804039,11450.604214 3200.519169,11447.827855 3206.675648,11438.019018 3209.471362,11433.649013 3222.091309,11440.896385 3222.879477,11415.680216 3211.848757,11415.578301 3211.939897,11405.713430 3218.682016,11392.610364 3228.143765,11383.374632 3243.615136,11380.229021 3257.930608,11382.011135 3267.265706,11386.482173 3273.784898,11397.504332 3274.697308,11417.808900 3269.197219,11416.661874 3269.544619,11439.142528 3276.109175,11444.141598 3273.293283,11450.692714 3267.131648,11461.055110 3260.465541,11465.931893 3251.594456,11471.330860 3238.898530,11472.309724 3224.017780,11471.629662 3216.877681,11467.721487"/>
    <poly id="105578129" type="landuse.residential" color="235,235,227" fill="1" layer="-3.00" shape="2977.968935,11329.134536 2947.116852,11320.025136 3005.616612,11075.959496 3022.053581,10994.915627 3027.084499,10934.372686 3029.917739,10870.210875 3030.958550,10846.547228 3314.861190,10861.105070 3336.904350,10872.270739 3478.654353,10881.288396 3495.474615,10895.760978 3497.916741,11064.021224 3457.628791,11243.490143 3435.603846,11292.648155 3398.672974,11302.725831 3303.166197,11321.009363 3301.698897,11316.245639 3195.118590,11349.098699 3212.700317,11266.648242 3164.890625,11283.557441 3130.560729,11294.789182 3037.087623,11312.218394 2977.968935,11329.134536"/>
    <poly id="116038018" type="landuse.residential" color="235,235,227" fill="1" layer="-3.00" shape="3478.006229,11385.674271 3496.701619,11391.881918 3520.306372,11403.073443 3560.130865,11391.373043 3562.637111,11418.269565 3591.904160,11410.867313 3591.833083,11418.539998 3612.244553,11418.175464 3641.023062,11408.022761 3635.074552,11395.355892 3626.160979,11345.402093 3678.146867,11329.429904 3676.028151,11320.640727 3669.524490,11307.968701 3664.752197,11287.085746 3659.878307,11277.163774 3650.008537,11271.591349 3596.240257,11300.158875 3535.801428,11338.530534 3514.834723,11338.890036 3501.084376,11334.920531 3487.044706,11362.206426 3478.006229,11385.674271"/>
    <poly id="116038030" type="landuse.industrial" color="209,209,204" fill="1" layer="-3.00" shape="3604.929686,11136.818208 3591.755618,11147.204116 3586.220473,11194.233727 3598.611582,11222.860562 3568.738279,11235.738166 3592.810800,11298.565864 3539.182740,11330.888503 3519.290700,11333.992893 3502.245387,11329.450321 3544.735416,11207.557464 3566.727920,11095.340588 3569.711767,11071.783495 3574.142405,11069.632144 3582.336870,11077.381376 3592.588886,11099.422307 3604.929686,11136.818208"/>
    <poly id="116038063" type="landuse.industrial" color="209,209,204" fill="1" layer="-3.00" shape="3515.320832,11406.315858 3487.855582,11393.449853 3476.855408,11391.155648 3442.507840,11466.508187 3419.918769,11523.334330 3397.834278,11585.646124 3527.074015,11566.003635 3651.812156,11552.897647 3752.325066,11537.929208 3831.826113,11529.343577 3900.403508,11509.141363 3883.276635,11452.500721 3871.329733,11450.308165 3848.534603,11452.720817 3816.455943,11461.746321 3799.609074,11434.727753 3751.330380,11407.949163 3728.835717,11394.586252 3702.012280,11373.498826 3693.812687,11365.217978 3682.858062,11356.900526 3679.776550,11332.191026 3626.670239,11349.249020 3637.834697,11394.838909 3644.842565,11411.900365 3613.848797,11423.682361 3612.244553,11418.175464 3591.833083,11418.539998 3591.904160,11410.867313 3558.201445,11420.974499 3556.240047,11394.083025 3515.320832,11406.315858"/>
    <poly id="116234200" type="landuse.residential" color="235,235,227" fill="1" layer="-3.00" shape="3364.753770,11883.094484 3365.461085,11866.647081 3364.074862,11837.568573 3329.328522,11837.247191 3328.074001,11793.919422 3342.495821,11785.272197 3385.629104,11772.516894 3403.335743,11766.646130 3406.171928,11757.902840 3424.953251,11754.776986 3434.802378,11762.552549 3442.461817,11769.200589 3443.929169,11789.499254 3447.789332,11790.088615 3456.609588,11790.170256 3493.571248,11788.862606 3493.403643,11806.964832 3537.005902,11803.526391 3568.452334,11802.721477 3572.664400,11824.141786 3579.325338,11819.818725 3592.438859,11832.551971 3604.579409,11831.568270 3602.721220,11854.582169 3630.699773,11869.645587 3652.582632,11889.048398 3636.459975,11902.606904 3601.367121,11880.889318 3568.387747,11869.621836 3557.464003,11858.005086 3505.006201,11865.192593 3497.260520,11867.866888 3444.843240,11869.574013 3416.600559,11881.924369 3415.711360,11892.468371 3398.915187,11889.954474 3383.988394,11889.849581 3364.753770,11883.094484"/>
    <poly id="116234219" type="landuse.industrial" color="209,209,204" fill="1" layer="-3.00" shape="3230.100538,11832.487623 3268.189797,11769.238455 3312.772938,11718.650074 3327.868746,11756.082315 3331.429832,11789.012059 3319.834120,11790.001016 3324.903154,11838.856088 3359.654470,11837.527682 3359.895067,11871.533991 3358.148741,11881.383561 3230.100538,11832.487623"/>
    <poly id="116234236" type="landuse.industrial" color="209,209,204" fill="1" layer="-3.00" shape="3422.574574,11892.941573 3423.190418,11885.273930 3437.566512,11881.564773 3451.962802,11875.674505 3497.764762,11872.256326 3503.662420,11890.403643 3546.189822,11884.220345 3604.575597,11891.892048 3628.159392,11906.361110 3620.332441,11917.804132 3597.100543,11925.273268 3540.466335,11906.102252 3504.594880,11909.612251 3501.682354,11925.485605 3429.734574,11893.561470 3422.574574,11892.941573"/>
    <poly id="116234240" type="landuse.industrial" color="209,209,204" fill="1" layer="-3.00" shape="3499.529845,11800.433330 3495.842344,11782.306482 3452.240042,11785.745043 3448.430739,11780.771385 3444.783617,11757.163968 3537.554394,11744.303872 3542.199721,11778.893560 3557.589457,11784.528140 3555.792231,11799.858185 3537.616908,11797.497456 3499.529845,11800.433330"/>
    <poly id="116334747" type="landuse.residential" color="235,235,227" fill="1" layer="-3.00" shape="3387.722556,12080.721162 3452.650845,12066.783697 3456.694473,12076.421117 3424.490645,12100.250322 3397.040486,12116.992793 3387.722556,12080.721162"/>
    <poly id="116334751" type="landuse.residential" color="235,235,227" fill="1" layer="-3.00" shape="3130.932977,12117.278611 3112.646954,12037.885031 3109.173190,12025.518039 3132.127099,12018.045620 3127.076873,11998.267544 3152.543668,11986.987229 3197.066648,11973.956387 3208.804232,12016.561628 3220.404625,12013.933892 3229.700176,12052.674383 3197.350801,12062.252216 3209.986808,12096.627727 3168.524781,12107.760152 3149.766868,12108.406237 3141.998676,12113.538618 3130.932977,12117.278611"/>
    <poly id="116334752" type="landuse.residential" color="235,235,227" fill="1" layer="-3.00" shape="3435.532226,11980.280731 3441.124474,12001.436958 3458.390114,12072.052045 3459.485165,12073.700935 3493.664672,12045.250651 3480.374422,11991.657768 3460.478121,11995.315775 3456.444617,11984.582258 3435.532226,11980.280731"/>
    <poly id="116334760" type="landuse.residential" color="235,235,227" fill="1" layer="-3.00" shape="3497.804861,12044.458540 3490.300394,12021.092194 3480.740621,11980.976052 3473.938503,11941.704827 3567.060851,11980.668244 3538.100597,12010.561877 3508.343494,12037.702162 3497.804861,12044.458540"/>
    <poly id="116334765" type="amenity.hospital" color="237,199,199" fill="1" layer="-1.00" shape="3324.188325,12122.907030 3311.106491,12075.627655 3214.364148,12101.318689 3213.337527,12092.262855 3199.838368,12061.179012 3229.700176,12052.674383 3220.404625,12013.933892 3225.112501,12011.785020 3217.128770,11981.272556 3224.347056,11975.581494 3196.353882,11871.959757 3208.590628,11860.557286 3221.720694,11841.489742 3347.326910,11886.520819 3390.748794,11902.546017 3398.943008,11911.391370 3451.689100,11931.898871 3452.081792,11942.786918 3452.573449,11956.311171 3456.444617,11984.582258 3435.532226,11980.280731 3438.641766,12000.871418 3452.650845,12066.783697 3387.722556,12080.721162 3397.040486,12116.992793 3379.578812,12126.431201 3375.858154,12110.773271 3324.188325,12122.907030"/>
    <poly id="116334772" type="landuse.residential" color="235,235,227" fill="1" layer="-3.00" shape="3454.971358,11934.941014 3456.589233,11968.960090 3460.478121,11995.315775 3480.374422,11991.657768 3474.038422,11960.894651 3470.353374,11941.394820 3454.971358,11934.941014"/>
    <poly id="116334775" type="leisure.garden" color="207,245,201" fill="1" layer="-2.00" shape="3305.629500,12011.975750 3295.998442,11980.628626 3321.147200,11973.741480 3328.568286,12006.153302 3305.629500,12011.975750"/>
    <poly id="116334784" type="landuse.industrial" color="209,209,204" fill="1" layer="-3.00" shape="3109.173190,12025.518039 3091.010050,11961.738052 3159.746756,11903.920433 3194.056645,11872.458946 3197.324632,11885.953465 3221.052077,11973.912292 3212.453832,11979.856346 3221.280372,12009.280405 3208.567192,12012.174674 3188.555394,11939.331121 3138.151227,11963.546395 3151.751653,11983.691341 3125.449729,11995.229687 3132.127099,12018.045620 3109.173190,12025.518039"/>
    <poly id="116481168" type="landuse.residential" color="235,235,227" fill="1" layer="-3.00" shape="2918.664124,12172.343494 2904.657722,12137.125173 2916.899144,12125.168904 2947.265569,12090.902394 2968.234474,12148.130937 2974.559414,12150.104857 2982.847287,12148.808320 2998.080737,12141.275553 3016.339173,12134.590093 3030.779929,12243.013707 3005.687185,12242.782111 2976.749671,12241.418890 2960.781697,12239.433507 2936.719533,12217.752780 2918.664124,12172.343494"/>
    <poly id="116481171" type="landuse.industrial" color="209,209,204" fill="1" layer="-3.00" shape="3106.403059,12027.131208 3082.626733,12033.488807 3090.656447,12060.159410 3080.130649,12064.435912 3063.870426,12064.020048 3068.655884,12083.529914 3075.895962,12105.531642 3022.826077,12119.015409 3018.572110,12132.141504 2996.762529,12137.066863 2986.136658,12144.398547 2971.991285,12147.656257 2949.119644,12089.402547 2958.851910,12078.641151 2976.689596,12064.079121 3063.479004,11987.260960 3088.377229,11962.953878 3094.001807,11981.773921 3098.691392,11996.078772 3106.403059,12027.131208"/>
    <poly id="116481176" type="landuse.residential" color="235,235,227" fill="1" layer="-3.00" shape="3212.717909,12129.272959 3214.364148,12101.318689 3311.106491,12075.627655 3324.188325,12122.907030 3329.031663,12135.009936 3357.992370,12135.001018 3362.086739,12139.157921 3405.880839,12114.882219 3408.847392,12122.040458 3294.956365,12212.280805 3264.690536,12234.489487 3230.017616,12257.465789 3221.473559,12220.858174 3220.464937,12216.530522 3220.440757,12189.114442 3212.492389,12153.674971 3212.717909,12129.272959"/>
    <poly id="116481182" type="landuse.residential" color="235,235,227" fill="1" layer="-3.00" shape="3129.839044,12235.712489 3102.803730,12237.655173 3067.765648,12238.970383 3033.547459,12241.677319 3018.171486,12135.448523 3061.885584,12129.795301 3064.141061,12123.792612 3082.692338,12115.460108 3125.007178,12102.142950 3151.022241,12211.780893 3157.534469,12232.425088 3129.839044,12235.712489"/>
    <poly id="116481183" type="landuse.residential" color="235,235,227" fill="1" layer="-3.00" shape="3058.320736,12127.293193 3018.572110,12132.141504 3022.826077,12119.015409 3075.895962,12105.531642 3068.655884,12083.529914 3063.870426,12064.020048 3080.130649,12064.435912 3090.656447,12060.159410 3113.027271,12055.704410 3124.485153,12099.668932 3080.520269,12112.428297 3061.421548,12119.925302 3058.320736,12127.293193"/>
    <poly id="116481189" type="landuse.residential" color="235,235,227" fill="1" layer="-3.00" shape="3159.657409,12231.868925 3132.557650,12120.582190 3145.283404,12116.314973 3150.576826,12110.871844 3167.944406,12110.489732 3210.794199,12099.370130 3208.388920,12120.463422 3208.902343,12155.014800 3216.827750,12191.827063 3217.689709,12218.697254 3188.332687,12232.687508 3159.657409,12231.868925"/>
    <poly id="116501248" type="landuse.residential" color="235,235,227" fill="1" layer="-3.00" shape="2675.089920,12309.215336 2701.055824,12244.757134 2866.165447,12161.827602 2894.805341,12165.380239 2958.388911,12327.184163 2806.985541,12359.781010 2690.933098,12385.031490 2688.824108,12375.146366 2714.037143,12367.871329 2698.073855,12310.689255 2675.089920,12309.215336"/>
    <poly id="116501255" type="landuse.retail" color="194,194,130" fill="1" layer="-3.00" shape="2454.247352,12335.695487 2444.559369,12310.383030 2489.960896,12291.069060 2547.522897,12268.567439 2619.465394,12240.717427 2708.069636,12200.952017 2785.614077,12165.469940 2789.852286,12184.155284 2632.503849,12262.761208 2562.730916,12293.930754 2484.168502,12320.623952 2454.247352,12335.695487"/>
    <poly id="116504149" type="landuse.railway" color="194,194,130" fill="1" layer="-3.00" shape="4791.383213,11362.056045 4835.507018,11611.050511 4840.812249,11634.131322 4575.458260,11582.302617 4438.997482,11554.710473 4372.854432,11549.698341 4320.970469,11554.707172 4248.023307,11570.471005 4193.694096,11594.103889 4082.837451,11653.385762 3986.312136,11713.908794 3919.579071,11773.612832 3724.852482,11957.150973 3626.854489,12057.136439 3595.536874,12104.004642 3544.216883,12167.130483 3492.958107,12223.690959 3387.456387,12300.577185 3163.034000,12476.162543 3091.806457,12545.694019 3079.798062,12531.321560 3046.909863,12449.058230 3001.735607,12461.529778 2937.530514,12480.890217 2890.070484,12484.848291 2843.782106,12486.613859 2781.724372,12500.569143 2715.623025,12516.026521 2650.266161,12528.800383 2539.152419,12552.657952 2424.802263,12572.998683 2386.344578,12570.652150 2367.607097,12553.483520 2262.239556,12500.219829 2332.591097,12466.319387 2401.091478,12453.783440 2431.012143,12437.615623 2479.451175,12447.926650 2509.251170,12446.008321 2633.143613,12406.578222 2827.596599,12371.076824 2878.245599,12380.313294 2922.304885,12387.307844 2971.914560,12389.957902 3074.686929,12368.971655 3158.912213,12325.879810 3287.765233,12227.273102 3479.250278,12065.324769 3613.550736,11945.146103 3686.548437,11834.941176 3766.472510,11758.417386 3752.247504,11738.055688 3724.737364,11731.223387 3657.218350,11637.376724 3649.721573,11613.179931 3856.226703,11587.668278 3970.158775,11553.636895 4047.679053,11520.353002 4127.685238,11457.484273 4443.925881,11256.436115 4581.484146,11173.267179 4728.100358,11070.441342 4751.449205,11178.374537 4824.021473,11187.600535 4880.050725,11212.251543 4934.856778,11248.949506 4961.307769,11274.542287 4993.907744,11327.520088 5016.502199,11375.178036 5028.568883,11410.712547 5039.056213,11467.790865 5027.956804,11471.728538 5006.591043,11408.148421 4987.351699,11371.118452 4941.766420,11321.451763 4893.581306,11283.708376 4855.415803,11266.244326 4812.272580,11253.340115 4773.134910,11250.782123 4792.634919,11348.027554 4791.383213,11362.056045"/>
    <poly id="218969686" type="waterway.canal" color="181,209,209" fill="0" layer="-4.00" shape="3336.954431,11632.972162 3244.243283,11737.227577 3189.113749,11812.133857 3140.937171,11874.514943 2948.710136,12042.406546 2856.438720,12108.434325 2645.038950,12213.282353 2460.696374,12286.149496 2374.690079,12318.543640 2316.550909,12334.540965"/>
    <poly id="218969690" type="natural.water" color="181,209,209" fill="1" layer="-4.00" shape="2316.316667,12328.703553 2316.550909,12334.540965 2321.271728,12338.791911 2339.288378,12332.623868 2342.878551,12339.090028 2297.167043,12357.493614 2300.500055,12366.216213 2334.605105,12354.504601 2346.916469,12349.413568 2361.560510,12346.669222 2372.620739,12343.482275 2419.861194,12318.692992 2462.320042,12296.284786 2625.190426,12235.267030 2792.754408,12157.054106 2844.040467,12129.601616 2865.088464,12113.607472 2908.926821,12086.673374 2950.255364,12055.442207 2959.379073,12039.327119 2977.827241,12032.145089 3015.606129,11999.021132 3119.234441,11909.016136 3148.753277,11884.242471 3184.777381,11844.171214 3198.562334,11822.097945 3216.011409,11797.356823 3254.546476,11742.604453 3331.561230,11659.186584 3349.767485,11644.883021 3362.687727,11641.868967 3384.188083,11639.343982 3398.361312,11634.248819 3439.221619,11628.304431 3517.706259,11616.153485 3594.595186,11605.361158 3671.108925,11595.130437 3820.224264,11577.501639 3884.267986,11567.211621 3922.198377,11554.653063 3965.399914,11540.216912 4003.550776,11523.862670 4039.670176,11503.747077 4075.833689,11482.214673 4135.843195,11439.257007 4231.350756,11375.658188 4306.426780,11328.999124 4409.207970,11267.251751 4506.756707,11206.618871 4569.903894,11173.635297 4638.710422,11125.867367 4691.040195,11087.590234 4687.560168,11080.404793 4702.570399,11071.664602 4730.982673,11049.142243 4768.647270,11022.332621 4816.263999,10977.966172 4851.338089,10939.041149 4872.209834,10917.013278 4908.033998,10872.669756 4947.696055,10820.345554 4995.820848,10754.757979 5022.509225,10718.788793 5039.555228,10690.325314 5070.051685,10655.067259 5075.449881,10651.740595 5083.880641,10649.571727 5089.473960,10650.664904 5093.953759,10653.187113 5102.138613,10666.307361 5113.043160,10672.266883 5125.637257,10682.261621 5141.251409,10692.550388 5164.517092,10711.414655 5200.931987,10740.267894 5263.349378,10788.841755 5317.043178,10826.914696 5338.940034,10811.883906 5322.997237,10799.388368 5266.109650,10759.801743 5211.512498,10718.243714 5162.482480,10682.739433 5131.751724,10658.435027 5120.264854,10649.879029 5115.100054,10645.844512 5106.394369,10641.134639 5098.757392,10637.586336 5089.342709,10631.729350 5077.620335,10630.755985 5071.825584,10631.410415 5066.041243,10633.150071 5059.277684,10637.349779 5053.825519,10642.048959 5039.151868,10659.805170 5022.643059,10677.001665 5010.530704,10689.145853 4983.298537,10723.891978 4920.873202,10809.143894 4857.911479,10889.153630 4851.306854,10901.670502 4799.120364,10955.317385 4758.832498,10991.071331 4729.531467,11022.875338 4699.197196,11047.527863 4676.025884,11063.721320 4639.427322,11088.703034 4564.452052,11140.853587 4503.134446,11177.187123 4402.277176,11238.686101 4293.679149,11302.372461 4214.385096,11350.420722 4141.058836,11400.230051 4090.930681,11433.092706 4038.727419,11472.435884 4002.770679,11493.848496 3952.318419,11514.074648 3907.949304,11531.345673 3872.779302,11541.139581 3816.332626,11548.167273 3693.156311,11562.449042 3625.382072,11572.594555 3523.845192,11589.381309 3449.735044,11595.416329 3426.355225,11602.164655 3394.340151,11609.940388 3367.510717,11620.620893 3361.725202,11615.883653 3358.828385,11607.840269 3360.573485,11594.790696 3372.154156,11570.991986 3365.202592,11558.936019 3377.756801,11543.262561 3385.821203,11531.710889 3408.133023,11479.277977 3418.275381,11447.604414 3422.862747,11438.500859 3432.173438,11431.157269 3443.928341,11406.330460 3456.098864,11379.924117 3472.858769,11336.430884 3496.727880,11280.203501 3508.818019,11240.287826 3529.656417,11172.738333 3543.528106,11109.210158 3545.885718,11073.334488 3549.239803,11020.892304 3544.749365,10856.267029 3542.864565,10735.568915 3537.996663,10596.130453 3530.522695,10453.855452 3519.707576,10314.838137 3507.554539,10195.927448 3498.624142,10112.080399 3484.305416,9974.924203 3477.705398,9861.424135 3462.666300,9735.389344 3457.020513,9658.758902 3430.452009,9531.864648 3416.082561,9446.749492 3394.301597,9333.563233 3372.517031,9206.259431 3347.067753,9099.384022 3322.962567,8974.971028 3314.630514,8958.595204 3312.269762,8938.089087 3296.800160,8880.645519 3280.087109,8764.073893 3256.785191,8666.132038 3238.755137,8586.342594 3227.139675,8446.576785 3227.605239,8396.123281 3251.560764,8310.786432 3306.769451,8186.242170 3351.610687,8109.867763 3388.385582,8069.615269 3488.525147,7978.394384 3604.080015,7890.605232 3716.284606,7807.170613 3739.695285,7781.056683 3759.998089,7732.979171 3779.637523,7637.726232 3811.431364,7540.382434 3783.893280,7535.742649 3775.835694,7571.864383 3746.283379,7665.940429 3732.358769,7739.311471 3706.625795,7778.558174 3627.723806,7839.258843 3525.605066,7906.333425 3377.524647,8050.868706 3331.775394,8106.384976 3298.159814,8163.120627 3256.437623,8260.362569 3231.644874,8317.179766 3214.361655,8396.001082 3211.532075,8518.781086 3217.453212,8593.653231 3240.859807,8699.236052 3267.917469,8815.847737 3293.465171,8950.051005 3314.813781,9062.336116 3331.772330,9160.042405 3357.377033,9264.560766 3377.266117,9378.892081 3404.806705,9529.745225 3421.228078,9629.805236 3435.591508,9733.334135 3449.060335,9847.960637 3457.964392,9944.718038 3468.289068,10059.060855 3481.335341,10205.949185 3492.259507,10332.123189 3500.945053,10461.299343 3510.647661,10600.538893 3512.735625,10754.866439 3517.241743,10887.857283 3521.668145,11047.211369 3521.077350,11066.605163 3515.837784,11088.391902 3502.245986,11153.904687 3483.354683,11221.040398 3475.915607,11252.761092 3462.993745,11281.463580 3442.711771,11331.147054 3424.572581,11375.934124 3397.300202,11438.895498 3385.765302,11461.066939 3358.284803,11523.218141 3342.480795,11554.562560 3332.627087,11582.839532 3331.358299,11598.860978 3322.885421,11604.562545 3324.927182,11610.571721 3307.164442,11639.174189 3254.320171,11702.574784 3173.599705,11812.156621 3158.212841,11831.801279 3129.372708,11865.450377 3072.803335,11914.909895 2966.114773,12009.039188 2901.837875,12067.208765 2854.822495,12090.825030 2781.404065,12131.449280 2619.502851,12212.072921 2532.417695,12248.785685 2444.206082,12275.002806 2399.995777,12289.987396 2372.874871,12300.157513 2333.115840,12320.774850 2316.316667,12328.703553"/>